
*** ChampSim Multicore Out-of-Order Simulator ***

Warmup Instructions: 10000000
Simulation Instructions: 100000000
Configuration: 2
Number of CPUs: 1
LLC sets: 2048
LLC ways: 16
Off-chip DRAM Channels: 1 Width: 64-bit Data Rate: 1600 MT/s

CPU 0 runs /datasets/cs240c-wi22-a00-public/data/Assignment2-gz/perlbench_135B.trace.gz
CPU 0 L1D next line prefetcher
CPU 0 L2C IP-based stride prefetcher
Heartbeat CPU 0 instructions: 1000000 cycles: 600047 heartbeat IPC: 1.66654 cumulative IPC: 1.66654 (Simulation time: 0 hr 0 min 54 sec) 
Heartbeat CPU 0 instructions: 2000000 cycles: 1209323 heartbeat IPC: 1.64129 cumulative IPC: 1.65382 (Simulation time: 0 hr 1 min 49 sec) 
Heartbeat CPU 0 instructions: 3000000 cycles: 1832880 heartbeat IPC: 1.6037 cumulative IPC: 1.63677 (Simulation time: 0 hr 2 min 44 sec) 
Heartbeat CPU 0 instructions: 4000000 cycles: 2492730 heartbeat IPC: 1.5155 cumulative IPC: 1.60467 (Simulation time: 0 hr 3 min 36 sec) 
Heartbeat CPU 0 instructions: 5000001 cycles: 3079430 heartbeat IPC: 1.70445 cumulative IPC: 1.62368 (Simulation time: 0 hr 4 min 27 sec) 
Heartbeat CPU 0 instructions: 6000002 cycles: 3681882 heartbeat IPC: 1.65988 cumulative IPC: 1.6296 (Simulation time: 0 hr 5 min 21 sec) 
Heartbeat CPU 0 instructions: 7000001 cycles: 4282700 heartbeat IPC: 1.6644 cumulative IPC: 1.63448 (Simulation time: 0 hr 6 min 16 sec) 
Heartbeat CPU 0 instructions: 8000000 cycles: 4893193 heartbeat IPC: 1.63802 cumulative IPC: 1.63492 (Simulation time: 0 hr 7 min 13 sec) 
Heartbeat CPU 0 instructions: 9000001 cycles: 5534301 heartbeat IPC: 1.5598 cumulative IPC: 1.62622 (Simulation time: 0 hr 8 min 8 sec) 
Heartbeat CPU 0 instructions: 10000000 cycles: 6193050 heartbeat IPC: 1.51803 cumulative IPC: 1.61471 (Simulation time: 0 hr 9 min 3 sec) 

Warmup complete CPU 0 instructions: 10000004 cycles: 6193051 (Simulation time: 0 hr 9 min 3 sec) 

Heartbeat CPU 0 instructions: 11000003 cycles: 8938378 heartbeat IPC: 0.364256 cumulative IPC: 0.364255 (Simulation time: 0 hr 10 min 16 sec) 
Heartbeat CPU 0 instructions: 12000000 cycles: 11277643 heartbeat IPC: 0.427483 cumulative IPC: 0.393344 (Simulation time: 0 hr 11 min 17 sec) 
Heartbeat CPU 0 instructions: 13000000 cycles: 13837721 heartbeat IPC: 0.390613 cumulative IPC: 0.39243 (Simulation time: 0 hr 12 min 24 sec) 
Heartbeat CPU 0 instructions: 14000000 cycles: 16857933 heartbeat IPC: 0.331103 cumulative IPC: 0.375062 (Simulation time: 0 hr 13 min 23 sec) 
Heartbeat CPU 0 instructions: 15000003 cycles: 19553384 heartbeat IPC: 0.370997 cumulative IPC: 0.374242 (Simulation time: 0 hr 14 min 21 sec) 
Heartbeat CPU 0 instructions: 16000000 cycles: 22206489 heartbeat IPC: 0.376916 cumulative IPC: 0.374685 (Simulation time: 0 hr 15 min 18 sec) 
Heartbeat CPU 0 instructions: 17000000 cycles: 24929561 heartbeat IPC: 0.367232 cumulative IPC: 0.373602 (Simulation time: 0 hr 16 min 18 sec) 
Heartbeat CPU 0 instructions: 18000000 cycles: 27629084 heartbeat IPC: 0.370436 cumulative IPC: 0.373203 (Simulation time: 0 hr 17 min 17 sec) 
Heartbeat CPU 0 instructions: 19000003 cycles: 30280297 heartbeat IPC: 0.377187 cumulative IPC: 0.373642 (Simulation time: 0 hr 18 min 17 sec) 
Heartbeat CPU 0 instructions: 20000000 cycles: 32938676 heartbeat IPC: 0.376168 cumulative IPC: 0.373893 (Simulation time: 0 hr 19 min 17 sec) 
Heartbeat CPU 0 instructions: 21000000 cycles: 35579030 heartbeat IPC: 0.378737 cumulative IPC: 0.374328 (Simulation time: 0 hr 20 min 14 sec) 
Heartbeat CPU 0 instructions: 22000002 cycles: 38221960 heartbeat IPC: 0.378369 cumulative IPC: 0.374661 (Simulation time: 0 hr 21 min 9 sec) 
Heartbeat CPU 0 instructions: 23000003 cycles: 40883774 heartbeat IPC: 0.375684 cumulative IPC: 0.37474 (Simulation time: 0 hr 22 min 14 sec) 
Heartbeat CPU 0 instructions: 24000000 cycles: 42985130 heartbeat IPC: 0.475882 cumulative IPC: 0.380517 (Simulation time: 0 hr 23 min 9 sec) 
Heartbeat CPU 0 instructions: 25000000 cycles: 45595529 heartbeat IPC: 0.383083 cumulative IPC: 0.380687 (Simulation time: 0 hr 24 min 17 sec) 
Heartbeat CPU 0 instructions: 26000001 cycles: 48167065 heartbeat IPC: 0.388873 cumulative IPC: 0.381188 (Simulation time: 0 hr 25 min 15 sec) 
Heartbeat CPU 0 instructions: 27000000 cycles: 50850307 heartbeat IPC: 0.372683 cumulative IPC: 0.380677 (Simulation time: 0 hr 26 min 12 sec) 
Heartbeat CPU 0 instructions: 28000000 cycles: 53510982 heartbeat IPC: 0.375844 cumulative IPC: 0.380405 (Simulation time: 0 hr 27 min 8 sec) 
Heartbeat CPU 0 instructions: 29000000 cycles: 56158401 heartbeat IPC: 0.377726 cumulative IPC: 0.380263 (Simulation time: 0 hr 28 min 1 sec) 
Heartbeat CPU 0 instructions: 30000000 cycles: 58893773 heartbeat IPC: 0.365581 cumulative IPC: 0.379501 (Simulation time: 0 hr 28 min 57 sec) 
Heartbeat CPU 0 instructions: 31000001 cycles: 61552583 heartbeat IPC: 0.376108 cumulative IPC: 0.379338 (Simulation time: 0 hr 29 min 53 sec) 
Heartbeat CPU 0 instructions: 32000000 cycles: 64226114 heartbeat IPC: 0.374037 cumulative IPC: 0.379094 (Simulation time: 0 hr 30 min 52 sec) 
Heartbeat CPU 0 instructions: 33000000 cycles: 66874986 heartbeat IPC: 0.377519 cumulative IPC: 0.379025 (Simulation time: 0 hr 31 min 52 sec) 
Heartbeat CPU 0 instructions: 34000001 cycles: 69496727 heartbeat IPC: 0.381426 cumulative IPC: 0.379125 (Simulation time: 0 hr 32 min 48 sec) 
Heartbeat CPU 0 instructions: 35000003 cycles: 72155919 heartbeat IPC: 0.376055 cumulative IPC: 0.379001 (Simulation time: 0 hr 33 min 51 sec) 
Heartbeat CPU 0 instructions: 36000000 cycles: 74457625 heartbeat IPC: 0.434459 cumulative IPC: 0.380871 (Simulation time: 0 hr 34 min 52 sec) 
Heartbeat CPU 0 instructions: 37000000 cycles: 76746491 heartbeat IPC: 0.436898 cumulative IPC: 0.382689 (Simulation time: 0 hr 35 min 54 sec) 
Heartbeat CPU 0 instructions: 38000000 cycles: 78833921 heartbeat IPC: 0.479058 cumulative IPC: 0.385458 (Simulation time: 0 hr 36 min 52 sec) 
Heartbeat CPU 0 instructions: 39000000 cycles: 81129012 heartbeat IPC: 0.435713 cumulative IPC: 0.386997 (Simulation time: 0 hr 37 min 53 sec) 
Heartbeat CPU 0 instructions: 40000000 cycles: 83082395 heartbeat IPC: 0.511932 cumulative IPC: 0.390171 (Simulation time: 0 hr 38 min 44 sec) 
Heartbeat CPU 0 instructions: 41000001 cycles: 85162422 heartbeat IPC: 0.480763 cumulative IPC: 0.392557 (Simulation time: 0 hr 39 min 37 sec) 
Heartbeat CPU 0 instructions: 42000003 cycles: 87782943 heartbeat IPC: 0.381604 cumulative IPC: 0.392205 (Simulation time: 0 hr 40 min 37 sec) 
Heartbeat CPU 0 instructions: 43000001 cycles: 90346335 heartbeat IPC: 0.390107 cumulative IPC: 0.392142 (Simulation time: 0 hr 41 min 43 sec) 
Heartbeat CPU 0 instructions: 44000000 cycles: 92640933 heartbeat IPC: 0.435806 cumulative IPC: 0.393301 (Simulation time: 0 hr 42 min 44 sec) 
Heartbeat CPU 0 instructions: 45000003 cycles: 95283810 heartbeat IPC: 0.378377 cumulative IPC: 0.392858 (Simulation time: 0 hr 43 min 46 sec) 
Heartbeat CPU 0 instructions: 46000003 cycles: 97974057 heartbeat IPC: 0.371713 cumulative IPC: 0.392238 (Simulation time: 0 hr 44 min 46 sec) 
Heartbeat CPU 0 instructions: 47000000 cycles: 100622981 heartbeat IPC: 0.377511 cumulative IPC: 0.391825 (Simulation time: 0 hr 45 min 45 sec) 
Heartbeat CPU 0 instructions: 48000000 cycles: 103257818 heartbeat IPC: 0.37953 cumulative IPC: 0.391491 (Simulation time: 0 hr 46 min 50 sec) 
Heartbeat CPU 0 instructions: 49000000 cycles: 105947271 heartbeat IPC: 0.371823 cumulative IPC: 0.390961 (Simulation time: 0 hr 47 min 46 sec) 
Heartbeat CPU 0 instructions: 50000001 cycles: 108591454 heartbeat IPC: 0.378189 cumulative IPC: 0.390631 (Simulation time: 0 hr 48 min 44 sec) 
Heartbeat CPU 0 instructions: 51000000 cycles: 111229719 heartbeat IPC: 0.379037 cumulative IPC: 0.39034 (Simulation time: 0 hr 49 min 43 sec) 
Heartbeat CPU 0 instructions: 52000000 cycles: 113859173 heartbeat IPC: 0.380307 cumulative IPC: 0.390095 (Simulation time: 0 hr 50 min 41 sec) 
Heartbeat CPU 0 instructions: 53000000 cycles: 116454152 heartbeat IPC: 0.38536 cumulative IPC: 0.389983 (Simulation time: 0 hr 51 min 38 sec) 
Heartbeat CPU 0 instructions: 54000001 cycles: 119108661 heartbeat IPC: 0.376718 cumulative IPC: 0.389672 (Simulation time: 0 hr 52 min 36 sec) 
Heartbeat CPU 0 instructions: 55000001 cycles: 121557625 heartbeat IPC: 0.408336 cumulative IPC: 0.390068 (Simulation time: 0 hr 53 min 36 sec) 
Heartbeat CPU 0 instructions: 56000000 cycles: 123685104 heartbeat IPC: 0.470039 cumulative IPC: 0.391516 (Simulation time: 0 hr 54 min 40 sec) 
Heartbeat CPU 0 instructions: 57000000 cycles: 125886701 heartbeat IPC: 0.454216 cumulative IPC: 0.392669 (Simulation time: 0 hr 55 min 37 sec) 
Heartbeat CPU 0 instructions: 58000002 cycles: 127834551 heartbeat IPC: 0.513388 cumulative IPC: 0.394602 (Simulation time: 0 hr 56 min 25 sec) 
Heartbeat CPU 0 instructions: 59000003 cycles: 129958332 heartbeat IPC: 0.470859 cumulative IPC: 0.395911 (Simulation time: 0 hr 57 min 20 sec) 
Heartbeat CPU 0 instructions: 60000000 cycles: 132904832 heartbeat IPC: 0.339385 cumulative IPC: 0.394596 (Simulation time: 0 hr 58 min 16 sec) 
Heartbeat CPU 0 instructions: 61000000 cycles: 135322993 heartbeat IPC: 0.413537 cumulative IPC: 0.394951 (Simulation time: 0 hr 59 min 13 sec) 
Heartbeat CPU 0 instructions: 62000001 cycles: 138116096 heartbeat IPC: 0.358025 cumulative IPC: 0.394169 (Simulation time: 1 hr 0 min 11 sec) 
Heartbeat CPU 0 instructions: 63000000 cycles: 141014470 heartbeat IPC: 0.345021 cumulative IPC: 0.393113 (Simulation time: 1 hr 1 min 11 sec) 
Heartbeat CPU 0 instructions: 64000000 cycles: 143922326 heartbeat IPC: 0.343896 cumulative IPC: 0.392073 (Simulation time: 1 hr 2 min 6 sec) 
Heartbeat CPU 0 instructions: 65000001 cycles: 146813407 heartbeat IPC: 0.345892 cumulative IPC: 0.391124 (Simulation time: 1 hr 3 min 5 sec) 
Heartbeat CPU 0 instructions: 66000001 cycles: 149673741 heartbeat IPC: 0.34961 cumulative IPC: 0.390296 (Simulation time: 1 hr 4 min 2 sec) 
Heartbeat CPU 0 instructions: 67000001 cycles: 152407071 heartbeat IPC: 0.365854 cumulative IPC: 0.389839 (Simulation time: 1 hr 4 min 57 sec) 
Heartbeat CPU 0 instructions: 68000000 cycles: 155146032 heartbeat IPC: 0.365102 cumulative IPC: 0.389385 (Simulation time: 1 hr 5 min 51 sec) 
Heartbeat CPU 0 instructions: 69000002 cycles: 158097228 heartbeat IPC: 0.338846 cumulative IPC: 0.388403 (Simulation time: 1 hr 6 min 48 sec) 
Heartbeat CPU 0 instructions: 70000003 cycles: 159905539 heartbeat IPC: 0.553003 cumulative IPC: 0.390339 (Simulation time: 1 hr 7 min 29 sec) 
Heartbeat CPU 0 instructions: 71000000 cycles: 161825284 heartbeat IPC: 0.520901 cumulative IPC: 0.39195 (Simulation time: 1 hr 8 min 11 sec) 
Heartbeat CPU 0 instructions: 72000000 cycles: 163813833 heartbeat IPC: 0.502879 cumulative IPC: 0.393349 (Simulation time: 1 hr 8 min 48 sec) 
Heartbeat CPU 0 instructions: 73000000 cycles: 166091306 heartbeat IPC: 0.439083 cumulative IPC: 0.394001 (Simulation time: 1 hr 9 min 32 sec) 
Heartbeat CPU 0 instructions: 74000000 cycles: 168009852 heartbeat IPC: 0.521228 cumulative IPC: 0.395509 (Simulation time: 1 hr 10 min 10 sec) 
Heartbeat CPU 0 instructions: 75000003 cycles: 170246783 heartbeat IPC: 0.447042 cumulative IPC: 0.396212 (Simulation time: 1 hr 10 min 46 sec) 
Heartbeat CPU 0 instructions: 76000000 cycles: 172996539 heartbeat IPC: 0.363668 cumulative IPC: 0.395675 (Simulation time: 1 hr 11 min 27 sec) 
Heartbeat CPU 0 instructions: 77000000 cycles: 175698380 heartbeat IPC: 0.370118 cumulative IPC: 0.395268 (Simulation time: 1 hr 12 min 5 sec) 
Heartbeat CPU 0 instructions: 78000000 cycles: 178659020 heartbeat IPC: 0.337765 cumulative IPC: 0.394281 (Simulation time: 1 hr 12 min 48 sec) 
Heartbeat CPU 0 instructions: 79000000 cycles: 180519775 heartbeat IPC: 0.537416 cumulative IPC: 0.395808 (Simulation time: 1 hr 13 min 25 sec) 
Heartbeat CPU 0 instructions: 80000000 cycles: 182306954 heartbeat IPC: 0.559541 cumulative IPC: 0.39747 (Simulation time: 1 hr 13 min 55 sec) 
Heartbeat CPU 0 instructions: 81000000 cycles: 184228350 heartbeat IPC: 0.520455 cumulative IPC: 0.398797 (Simulation time: 1 hr 14 min 25 sec) 
Heartbeat CPU 0 instructions: 82000000 cycles: 186145889 heartbeat IPC: 0.521502 cumulative IPC: 0.400105 (Simulation time: 1 hr 14 min 55 sec) 
Heartbeat CPU 0 instructions: 83000000 cycles: 188479191 heartbeat IPC: 0.428577 cumulative IPC: 0.400469 (Simulation time: 1 hr 15 min 28 sec) 
Heartbeat CPU 0 instructions: 84000000 cycles: 190436332 heartbeat IPC: 0.510949 cumulative IPC: 0.401643 (Simulation time: 1 hr 15 min 58 sec) 
Heartbeat CPU 0 instructions: 85000000 cycles: 192357347 heartbeat IPC: 0.520558 cumulative IPC: 0.40287 (Simulation time: 1 hr 16 min 25 sec) 
Heartbeat CPU 0 instructions: 86000002 cycles: 194275881 heartbeat IPC: 0.521232 cumulative IPC: 0.404077 (Simulation time: 1 hr 16 min 50 sec) 
Heartbeat CPU 0 instructions: 87000003 cycles: 196443958 heartbeat IPC: 0.461239 cumulative IPC: 0.404729 (Simulation time: 1 hr 17 min 16 sec) 
Heartbeat CPU 0 instructions: 88000000 cycles: 199225608 heartbeat IPC: 0.359498 cumulative IPC: 0.404077 (Simulation time: 1 hr 17 min 44 sec) 
Heartbeat CPU 0 instructions: 89000003 cycles: 201800080 heartbeat IPC: 0.38843 cumulative IPC: 0.403871 (Simulation time: 1 hr 18 min 13 sec) 
Heartbeat CPU 0 instructions: 90000001 cycles: 204687495 heartbeat IPC: 0.34633 cumulative IPC: 0.403034 (Simulation time: 1 hr 18 min 43 sec) 
Heartbeat CPU 0 instructions: 91000000 cycles: 207182700 heartbeat IPC: 0.400768 cumulative IPC: 0.403006 (Simulation time: 1 hr 19 min 10 sec) 
Heartbeat CPU 0 instructions: 92000000 cycles: 209647920 heartbeat IPC: 0.405643 cumulative IPC: 0.403038 (Simulation time: 1 hr 19 min 36 sec) 
Heartbeat CPU 0 instructions: 93000000 cycles: 212351361 heartbeat IPC: 0.369899 cumulative IPC: 0.402603 (Simulation time: 1 hr 20 min 1 sec) 
Heartbeat CPU 0 instructions: 94000001 cycles: 215022754 heartbeat IPC: 0.374337 cumulative IPC: 0.402242 (Simulation time: 1 hr 20 min 27 sec) 
Heartbeat CPU 0 instructions: 95000000 cycles: 217877515 heartbeat IPC: 0.350292 cumulative IPC: 0.401541 (Simulation time: 1 hr 20 min 52 sec) 
Heartbeat CPU 0 instructions: 96000000 cycles: 220919187 heartbeat IPC: 0.328767 cumulative IPC: 0.40051 (Simulation time: 1 hr 21 min 18 sec) 
Heartbeat CPU 0 instructions: 97000001 cycles: 223826844 heartbeat IPC: 0.34392 cumulative IPC: 0.399754 (Simulation time: 1 hr 21 min 43 sec) 
Heartbeat CPU 0 instructions: 98000000 cycles: 226487514 heartbeat IPC: 0.375845 cumulative IPC: 0.399465 (Simulation time: 1 hr 22 min 7 sec) 
Heartbeat CPU 0 instructions: 99000000 cycles: 229096238 heartbeat IPC: 0.383329 cumulative IPC: 0.399276 (Simulation time: 1 hr 22 min 29 sec) 
Heartbeat CPU 0 instructions: 100000000 cycles: 231730028 heartbeat IPC: 0.379681 cumulative IPC: 0.399048 (Simulation time: 1 hr 22 min 48 sec) 
Heartbeat CPU 0 instructions: 101000001 cycles: 234343265 heartbeat IPC: 0.382668 cumulative IPC: 0.39886 (Simulation time: 1 hr 23 min 5 sec) 
Heartbeat CPU 0 instructions: 102000000 cycles: 236979218 heartbeat IPC: 0.379369 cumulative IPC: 0.398637 (Simulation time: 1 hr 23 min 23 sec) 
Heartbeat CPU 0 instructions: 103000000 cycles: 239631442 heartbeat IPC: 0.377042 cumulative IPC: 0.398392 (Simulation time: 1 hr 23 min 42 sec) 
Heartbeat CPU 0 instructions: 104000000 cycles: 242373001 heartbeat IPC: 0.364756 cumulative IPC: 0.398002 (Simulation time: 1 hr 23 min 59 sec) 
Heartbeat CPU 0 instructions: 105000001 cycles: 244986449 heartbeat IPC: 0.382637 cumulative IPC: 0.397833 (Simulation time: 1 hr 24 min 13 sec) 
Heartbeat CPU 0 instructions: 106000001 cycles: 247614834 heartbeat IPC: 0.380462 cumulative IPC: 0.397644 (Simulation time: 1 hr 24 min 25 sec) 
Heartbeat CPU 0 instructions: 107000000 cycles: 250242678 heartbeat IPC: 0.38054 cumulative IPC: 0.39746 (Simulation time: 1 hr 24 min 37 sec) 
Heartbeat CPU 0 instructions: 108000000 cycles: 252865348 heartbeat IPC: 0.381291 cumulative IPC: 0.397288 (Simulation time: 1 hr 24 min 47 sec) 
Heartbeat CPU 0 instructions: 109000001 cycles: 255446004 heartbeat IPC: 0.387499 cumulative IPC: 0.397187 (Simulation time: 1 hr 24 min 56 sec) 
Heartbeat CPU 0 instructions: 110000003 cycles: 257601264 heartbeat IPC: 0.463982 cumulative IPC: 0.397759 (Simulation time: 1 hr 25 min 3 sec) 
Finished CPU 0 instructions: 100000003 cycles: 251408214 cummulative IPC: 0.397759 (Simulation time: 1 hr 25 min 3 sec) 

ChampSim completed all CPUs

Region of Interest Statistics

CPU 0 cummulative IPC: 0.397759 instructions: 100000003 cycles: 251408214
LLC TOTAL     ACCESS:     635527  HIT:     466949  MISS:     168578
LLC LOAD      ACCESS:     295072  HIT:     287194  MISS:       7878
LLC RFO       ACCESS:      30362  HIT:      27059  MISS:       3303
LLC PREFETCH  ACCESS:     206812  HIT:      54734  MISS:     152078
LLC WRITEBACK ACCESS:     103281  HIT:      97962  MISS:       5319
