
*** ChampSim Multicore Out-of-Order Simulator ***

Warmup Instructions: 10000000
Simulation Instructions: 100000000
Configuration: 2
Number of CPUs: 1
LLC sets: 2048
LLC ways: 16
Off-chip DRAM Channels: 1 Width: 64-bit Data Rate: 1600 MT/s

CPU 0 runs /datasets/cs240c-wi22-a00-public/data/Assignment2-gz/soplex_205B.trace.gz
CPU 0 L1D next line prefetcher
CPU 0 L2C IP-based stride prefetcher
Heartbeat CPU 0 instructions: 1000000 cycles: 395620 heartbeat IPC: 2.52768 cumulative IPC: 2.52768 (Simulation time: 0 hr 0 min 32 sec) 
Heartbeat CPU 0 instructions: 2000002 cycles: 927584 heartbeat IPC: 1.87983 cumulative IPC: 2.15614 (Simulation time: 0 hr 1 min 6 sec) 
Heartbeat CPU 0 instructions: 3000000 cycles: 1399652 heartbeat IPC: 2.11833 cumulative IPC: 2.14339 (Simulation time: 0 hr 1 min 53 sec) 
Heartbeat CPU 0 instructions: 4000000 cycles: 1760917 heartbeat IPC: 2.76805 cumulative IPC: 2.27154 (Simulation time: 0 hr 2 min 28 sec) 
Heartbeat CPU 0 instructions: 5000003 cycles: 2204358 heartbeat IPC: 2.2551 cumulative IPC: 2.26824 (Simulation time: 0 hr 3 min 9 sec) 
Heartbeat CPU 0 instructions: 6000003 cycles: 2624340 heartbeat IPC: 2.38105 cumulative IPC: 2.28629 (Simulation time: 0 hr 3 min 49 sec) 
Heartbeat CPU 0 instructions: 7000000 cycles: 3008775 heartbeat IPC: 2.60121 cumulative IPC: 2.32653 (Simulation time: 0 hr 4 min 20 sec) 
Heartbeat CPU 0 instructions: 8000000 cycles: 3402769 heartbeat IPC: 2.53811 cumulative IPC: 2.35103 (Simulation time: 0 hr 4 min 55 sec) 
Heartbeat CPU 0 instructions: 9000003 cycles: 3927899 heartbeat IPC: 1.9043 cumulative IPC: 2.2913 (Simulation time: 0 hr 5 min 37 sec) 
Heartbeat CPU 0 instructions: 10000000 cycles: 4413320 heartbeat IPC: 2.06006 cumulative IPC: 2.26587 (Simulation time: 0 hr 6 min 22 sec) 

Warmup complete CPU 0 instructions: 10000004 cycles: 4413322 (Simulation time: 0 hr 6 min 22 sec) 

Heartbeat CPU 0 instructions: 11000001 cycles: 7042861 heartbeat IPC: 0.380295 cumulative IPC: 0.380294 (Simulation time: 0 hr 7 min 14 sec) 
Heartbeat CPU 0 instructions: 12000000 cycles: 9310192 heartbeat IPC: 0.441047 cumulative IPC: 0.408423 (Simulation time: 0 hr 8 min 8 sec) 
Heartbeat CPU 0 instructions: 13000000 cycles: 12911253 heartbeat IPC: 0.277696 cumulative IPC: 0.353027 (Simulation time: 0 hr 9 min 7 sec) 
Heartbeat CPU 0 instructions: 14000003 cycles: 14223717 heartbeat IPC: 0.761928 cumulative IPC: 0.407731 (Simulation time: 0 hr 9 min 40 sec) 
Heartbeat CPU 0 instructions: 15000000 cycles: 15971575 heartbeat IPC: 0.572127 cumulative IPC: 0.432591 (Simulation time: 0 hr 10 min 19 sec) 
Heartbeat CPU 0 instructions: 16000000 cycles: 19407898 heartbeat IPC: 0.291009 cumulative IPC: 0.400144 (Simulation time: 0 hr 11 min 17 sec) 
Heartbeat CPU 0 instructions: 17000001 cycles: 23162640 heartbeat IPC: 0.26633 cumulative IPC: 0.373347 (Simulation time: 0 hr 12 min 27 sec) 
Heartbeat CPU 0 instructions: 18000000 cycles: 29759557 heartbeat IPC: 0.151586 cumulative IPC: 0.315629 (Simulation time: 0 hr 13 min 33 sec) 
Heartbeat CPU 0 instructions: 19000003 cycles: 34299647 heartbeat IPC: 0.220261 cumulative IPC: 0.301141 (Simulation time: 0 hr 14 min 41 sec) 
Heartbeat CPU 0 instructions: 20000000 cycles: 36537237 heartbeat IPC: 0.446908 cumulative IPC: 0.311294 (Simulation time: 0 hr 15 min 47 sec) 
Heartbeat CPU 0 instructions: 21000001 cycles: 41184239 heartbeat IPC: 0.215193 cumulative IPC: 0.299149 (Simulation time: 0 hr 16 min 58 sec) 
Heartbeat CPU 0 instructions: 22000001 cycles: 45348013 heartbeat IPC: 0.240167 cumulative IPC: 0.29315 (Simulation time: 0 hr 18 min 2 sec) 
Heartbeat CPU 0 instructions: 23000002 cycles: 48571530 heartbeat IPC: 0.31022 cumulative IPC: 0.294396 (Simulation time: 0 hr 19 min 1 sec) 
Heartbeat CPU 0 instructions: 24000000 cycles: 52406241 heartbeat IPC: 0.260775 cumulative IPC: 0.29171 (Simulation time: 0 hr 20 min 0 sec) 
Heartbeat CPU 0 instructions: 25000000 cycles: 56329559 heartbeat IPC: 0.254886 cumulative IPC: 0.288927 (Simulation time: 0 hr 20 min 54 sec) 
Heartbeat CPU 0 instructions: 26000002 cycles: 60117308 heartbeat IPC: 0.26401 cumulative IPC: 0.287233 (Simulation time: 0 hr 22 min 0 sec) 
Heartbeat CPU 0 instructions: 27000000 cycles: 62716828 heartbeat IPC: 0.384686 cumulative IPC: 0.291578 (Simulation time: 0 hr 22 min 52 sec) 
Heartbeat CPU 0 instructions: 28000000 cycles: 66383781 heartbeat IPC: 0.272706 cumulative IPC: 0.290461 (Simulation time: 0 hr 23 min 57 sec) 
Heartbeat CPU 0 instructions: 29000002 cycles: 68421194 heartbeat IPC: 0.490819 cumulative IPC: 0.296838 (Simulation time: 0 hr 24 min 52 sec) 
Heartbeat CPU 0 instructions: 30000003 cycles: 69334083 heartbeat IPC: 1.09542 cumulative IPC: 0.308068 (Simulation time: 0 hr 25 min 35 sec) 
Heartbeat CPU 0 instructions: 31000003 cycles: 70672768 heartbeat IPC: 0.747002 cumulative IPC: 0.316936 (Simulation time: 0 hr 26 min 19 sec) 
Heartbeat CPU 0 instructions: 32000000 cycles: 73816541 heartbeat IPC: 0.318088 cumulative IPC: 0.316988 (Simulation time: 0 hr 27 min 22 sec) 
Heartbeat CPU 0 instructions: 33000000 cycles: 76835169 heartbeat IPC: 0.331276 cumulative IPC: 0.317584 (Simulation time: 0 hr 28 min 23 sec) 
Heartbeat CPU 0 instructions: 34000002 cycles: 78567314 heartbeat IPC: 0.57732 cumulative IPC: 0.323651 (Simulation time: 0 hr 29 min 14 sec) 
Heartbeat CPU 0 instructions: 35000003 cycles: 81267320 heartbeat IPC: 0.37037 cumulative IPC: 0.325292 (Simulation time: 0 hr 30 min 6 sec) 
Heartbeat CPU 0 instructions: 36000000 cycles: 83881101 heartbeat IPC: 0.382586 cumulative IPC: 0.327177 (Simulation time: 0 hr 31 min 5 sec) 
Heartbeat CPU 0 instructions: 37000000 cycles: 87530746 heartbeat IPC: 0.273999 cumulative IPC: 0.324842 (Simulation time: 0 hr 32 min 4 sec) 
Heartbeat CPU 0 instructions: 38000002 cycles: 88834444 heartbeat IPC: 0.76705 cumulative IPC: 0.331671 (Simulation time: 0 hr 32 min 36 sec) 
Heartbeat CPU 0 instructions: 39000003 cycles: 90833969 heartbeat IPC: 0.500119 cumulative IPC: 0.335568 (Simulation time: 0 hr 33 min 11 sec) 
Heartbeat CPU 0 instructions: 40000000 cycles: 94311188 heartbeat IPC: 0.287585 cumulative IPC: 0.333712 (Simulation time: 0 hr 34 min 9 sec) 
Heartbeat CPU 0 instructions: 41000000 cycles: 97733310 heartbeat IPC: 0.292216 cumulative IPC: 0.33219 (Simulation time: 0 hr 35 min 6 sec) 
Heartbeat CPU 0 instructions: 42000001 cycles: 99594528 heartbeat IPC: 0.537283 cumulative IPC: 0.336201 (Simulation time: 0 hr 35 min 53 sec) 
Heartbeat CPU 0 instructions: 43000001 cycles: 103417449 heartbeat IPC: 0.26158 cumulative IPC: 0.333319 (Simulation time: 0 hr 37 min 0 sec) 
Heartbeat CPU 0 instructions: 44000000 cycles: 105803398 heartbeat IPC: 0.41912 cumulative IPC: 0.335339 (Simulation time: 0 hr 37 min 44 sec) 
Heartbeat CPU 0 instructions: 45000001 cycles: 107099771 heartbeat IPC: 0.771384 cumulative IPC: 0.340843 (Simulation time: 0 hr 38 min 20 sec) 
Heartbeat CPU 0 instructions: 46000002 cycles: 109933047 heartbeat IPC: 0.352949 cumulative IPC: 0.341168 (Simulation time: 0 hr 39 min 11 sec) 
Heartbeat CPU 0 instructions: 47000000 cycles: 113175457 heartbeat IPC: 0.308412 cumulative IPC: 0.340192 (Simulation time: 0 hr 40 min 8 sec) 
Heartbeat CPU 0 instructions: 48000000 cycles: 115945299 heartbeat IPC: 0.361031 cumulative IPC: 0.340709 (Simulation time: 0 hr 41 min 6 sec) 
Heartbeat CPU 0 instructions: 49000001 cycles: 117956529 heartbeat IPC: 0.497209 cumulative IPC: 0.343482 (Simulation time: 0 hr 41 min 52 sec) 
Heartbeat CPU 0 instructions: 50000000 cycles: 121317578 heartbeat IPC: 0.297526 cumulative IPC: 0.34216 (Simulation time: 0 hr 42 min 53 sec) 
Heartbeat CPU 0 instructions: 51000003 cycles: 123752634 heartbeat IPC: 0.410669 cumulative IPC: 0.343558 (Simulation time: 0 hr 43 min 38 sec) 
Heartbeat CPU 0 instructions: 52000000 cycles: 125043225 heartbeat IPC: 0.774836 cumulative IPC: 0.348172 (Simulation time: 0 hr 44 min 13 sec) 
Heartbeat CPU 0 instructions: 53000003 cycles: 127849830 heartbeat IPC: 0.356303 cumulative IPC: 0.348357 (Simulation time: 0 hr 45 min 3 sec) 
Heartbeat CPU 0 instructions: 54000000 cycles: 131013436 heartbeat IPC: 0.316094 cumulative IPC: 0.347551 (Simulation time: 0 hr 46 min 0 sec) 
Heartbeat CPU 0 instructions: 55000001 cycles: 134037752 heartbeat IPC: 0.330654 cumulative IPC: 0.347157 (Simulation time: 0 hr 46 min 59 sec) 
Heartbeat CPU 0 instructions: 56000000 cycles: 135919406 heartbeat IPC: 0.531447 cumulative IPC: 0.349794 (Simulation time: 0 hr 47 min 51 sec) 
Heartbeat CPU 0 instructions: 57000000 cycles: 139386753 heartbeat IPC: 0.288405 cumulative IPC: 0.348217 (Simulation time: 0 hr 48 min 53 sec) 
Heartbeat CPU 0 instructions: 58000000 cycles: 141676094 heartbeat IPC: 0.436807 cumulative IPC: 0.349694 (Simulation time: 0 hr 49 min 33 sec) 
Heartbeat CPU 0 instructions: 59000001 cycles: 142963311 heartbeat IPC: 0.776871 cumulative IPC: 0.353663 (Simulation time: 0 hr 50 min 6 sec) 
Heartbeat CPU 0 instructions: 60000000 cycles: 145790730 heartbeat IPC: 0.353679 cumulative IPC: 0.353663 (Simulation time: 0 hr 50 min 54 sec) 
Heartbeat CPU 0 instructions: 61000003 cycles: 148976855 heartbeat IPC: 0.313862 cumulative IPC: 0.352786 (Simulation time: 0 hr 51 min 56 sec) 
Heartbeat CPU 0 instructions: 62000002 cycles: 152148381 heartbeat IPC: 0.315305 cumulative IPC: 0.351981 (Simulation time: 0 hr 52 min 55 sec) 
Heartbeat CPU 0 instructions: 63000001 cycles: 153825809 heartbeat IPC: 0.59615 cumulative IPC: 0.354723 (Simulation time: 0 hr 53 min 43 sec) 
Heartbeat CPU 0 instructions: 64000000 cycles: 157674151 heartbeat IPC: 0.259852 cumulative IPC: 0.35234 (Simulation time: 0 hr 54 min 50 sec) 
Heartbeat CPU 0 instructions: 65000001 cycles: 159599996 heartbeat IPC: 0.519253 cumulative IPC: 0.354412 (Simulation time: 0 hr 55 min 30 sec) 
Heartbeat CPU 0 instructions: 66000000 cycles: 160883440 heartbeat IPC: 0.779153 cumulative IPC: 0.357896 (Simulation time: 0 hr 56 min 5 sec) 
Heartbeat CPU 0 instructions: 67000003 cycles: 163733787 heartbeat IPC: 0.350836 cumulative IPC: 0.357769 (Simulation time: 0 hr 56 min 57 sec) 
Heartbeat CPU 0 instructions: 68000000 cycles: 167033837 heartbeat IPC: 0.303025 cumulative IPC: 0.356659 (Simulation time: 0 hr 57 min 57 sec) 
Heartbeat CPU 0 instructions: 69000001 cycles: 169713500 heartbeat IPC: 0.373182 cumulative IPC: 0.356926 (Simulation time: 0 hr 58 min 57 sec) 
Heartbeat CPU 0 instructions: 70000000 cycles: 171602981 heartbeat IPC: 0.529245 cumulative IPC: 0.358874 (Simulation time: 0 hr 59 min 50 sec) 
Heartbeat CPU 0 instructions: 71000001 cycles: 175085923 heartbeat IPC: 0.287114 cumulative IPC: 0.357409 (Simulation time: 1 hr 0 min 59 sec) 
Heartbeat CPU 0 instructions: 72000000 cycles: 177358745 heartbeat IPC: 0.439981 cumulative IPC: 0.358495 (Simulation time: 1 hr 1 min 44 sec) 
Heartbeat CPU 0 instructions: 73000000 cycles: 178643495 heartbeat IPC: 0.778362 cumulative IPC: 0.361591 (Simulation time: 1 hr 2 min 17 sec) 
Heartbeat CPU 0 instructions: 74000003 cycles: 181672070 heartbeat IPC: 0.330189 cumulative IPC: 0.361054 (Simulation time: 1 hr 3 min 11 sec) 
Heartbeat CPU 0 instructions: 75000003 cycles: 185208350 heartbeat IPC: 0.282783 cumulative IPC: 0.359523 (Simulation time: 1 hr 4 min 7 sec) 
Heartbeat CPU 0 instructions: 76000000 cycles: 188428177 heartbeat IPC: 0.310575 cumulative IPC: 0.358667 (Simulation time: 1 hr 5 min 0 sec) 
Heartbeat CPU 0 instructions: 77000000 cycles: 190102823 heartbeat IPC: 0.597141 cumulative IPC: 0.360817 (Simulation time: 1 hr 5 min 43 sec) 
Heartbeat CPU 0 instructions: 78000002 cycles: 194152585 heartbeat IPC: 0.246929 cumulative IPC: 0.358387 (Simulation time: 1 hr 6 min 42 sec) 
Heartbeat CPU 0 instructions: 79000002 cycles: 195986158 heartbeat IPC: 0.545383 cumulative IPC: 0.360176 (Simulation time: 1 hr 7 min 15 sec) 
Heartbeat CPU 0 instructions: 80000000 cycles: 197268469 heartbeat IPC: 0.77984 cumulative IPC: 0.362967 (Simulation time: 1 hr 7 min 44 sec) 
Heartbeat CPU 0 instructions: 81000000 cycles: 200065598 heartbeat IPC: 0.357509 cumulative IPC: 0.362889 (Simulation time: 1 hr 8 min 27 sec) 
Heartbeat CPU 0 instructions: 82000000 cycles: 203434700 heartbeat IPC: 0.296815 cumulative IPC: 0.36177 (Simulation time: 1 hr 9 min 17 sec) 
Heartbeat CPU 0 instructions: 83000000 cycles: 206637459 heartbeat IPC: 0.312231 cumulative IPC: 0.360986 (Simulation time: 1 hr 10 min 3 sec) 
Heartbeat CPU 0 instructions: 84000000 cycles: 208431012 heartbeat IPC: 0.557553 cumulative IPC: 0.362714 (Simulation time: 1 hr 10 min 40 sec) 
Heartbeat CPU 0 instructions: 85000000 cycles: 212478906 heartbeat IPC: 0.247042 cumulative IPC: 0.360463 (Simulation time: 1 hr 11 min 28 sec) 
Heartbeat CPU 0 instructions: 86000002 cycles: 213934939 heartbeat IPC: 0.686799 cumulative IPC: 0.362731 (Simulation time: 1 hr 11 min 51 sec) 
Heartbeat CPU 0 instructions: 87000002 cycles: 215207605 heartbeat IPC: 0.785752 cumulative IPC: 0.365285 (Simulation time: 1 hr 12 min 14 sec) 
Heartbeat CPU 0 instructions: 88000000 cycles: 218007236 heartbeat IPC: 0.357189 cumulative IPC: 0.365179 (Simulation time: 1 hr 12 min 50 sec) 
Heartbeat CPU 0 instructions: 89000003 cycles: 221608564 heartbeat IPC: 0.277676 cumulative IPC: 0.363728 (Simulation time: 1 hr 13 min 31 sec) 
Heartbeat CPU 0 instructions: 90000001 cycles: 224648740 heartbeat IPC: 0.328928 cumulative IPC: 0.363248 (Simulation time: 1 hr 14 min 3 sec) 
Heartbeat CPU 0 instructions: 91000002 cycles: 226565791 heartbeat IPC: 0.521635 cumulative IPC: 0.364614 (Simulation time: 1 hr 14 min 32 sec) 
Heartbeat CPU 0 instructions: 92000000 cycles: 230400502 heartbeat IPC: 0.260775 cumulative IPC: 0.362852 (Simulation time: 1 hr 15 min 7 sec) 
Heartbeat CPU 0 instructions: 93000000 cycles: 231708593 heartbeat IPC: 0.764473 cumulative IPC: 0.365164 (Simulation time: 1 hr 15 min 25 sec) 
Heartbeat CPU 0 instructions: 94000000 cycles: 233117776 heartbeat IPC: 0.709631 cumulative IPC: 0.367286 (Simulation time: 1 hr 15 min 45 sec) 
Heartbeat CPU 0 instructions: 95000002 cycles: 236336248 heartbeat IPC: 0.310707 cumulative IPC: 0.366501 (Simulation time: 1 hr 16 min 15 sec) 
Heartbeat CPU 0 instructions: 96000000 cycles: 239539238 heartbeat IPC: 0.312208 cumulative IPC: 0.365761 (Simulation time: 1 hr 16 min 45 sec) 
Heartbeat CPU 0 instructions: 97000003 cycles: 242292394 heartbeat IPC: 0.363221 cumulative IPC: 0.365732 (Simulation time: 1 hr 17 min 10 sec) 
Heartbeat CPU 0 instructions: 98000000 cycles: 244724915 heartbeat IPC: 0.411095 cumulative IPC: 0.366191 (Simulation time: 1 hr 17 min 39 sec) 
Heartbeat CPU 0 instructions: 99000000 cycles: 248312156 heartbeat IPC: 0.278766 cumulative IPC: 0.364905 (Simulation time: 1 hr 18 min 8 sec) 
Heartbeat CPU 0 instructions: 100000000 cycles: 249627775 heartbeat IPC: 0.760098 cumulative IPC: 0.367026 (Simulation time: 1 hr 18 min 24 sec) 
Heartbeat CPU 0 instructions: 101000003 cycles: 251567956 heartbeat IPC: 0.515417 cumulative IPC: 0.368191 (Simulation time: 1 hr 18 min 43 sec) 
Heartbeat CPU 0 instructions: 102000002 cycles: 254679021 heartbeat IPC: 0.321433 cumulative IPC: 0.367609 (Simulation time: 1 hr 19 min 11 sec) 
Heartbeat CPU 0 instructions: 103000000 cycles: 257031339 heartbeat IPC: 0.425112 cumulative IPC: 0.368145 (Simulation time: 1 hr 19 min 39 sec) 
Heartbeat CPU 0 instructions: 104000000 cycles: 265913062 heartbeat IPC: 0.112591 cumulative IPC: 0.359465 (Simulation time: 1 hr 20 min 12 sec) 
Heartbeat CPU 0 instructions: 105000000 cycles: 268027506 heartbeat IPC: 0.472938 cumulative IPC: 0.360375 (Simulation time: 1 hr 20 min 41 sec) 
Heartbeat CPU 0 instructions: 106000002 cycles: 272055076 heartbeat IPC: 0.248289 cumulative IPC: 0.358688 (Simulation time: 1 hr 21 min 9 sec) 
Heartbeat CPU 0 instructions: 107000003 cycles: 276511578 heartbeat IPC: 0.224391 cumulative IPC: 0.356489 (Simulation time: 1 hr 21 min 35 sec) 
Heartbeat CPU 0 instructions: 108000000 cycles: 279977486 heartbeat IPC: 0.288524 cumulative IPC: 0.355634 (Simulation time: 1 hr 21 min 57 sec) 
Heartbeat CPU 0 instructions: 109000000 cycles: 283331647 heartbeat IPC: 0.298137 cumulative IPC: 0.354943 (Simulation time: 1 hr 22 min 20 sec) 
Heartbeat CPU 0 instructions: 110000003 cycles: 287061715 heartbeat IPC: 0.268092 cumulative IPC: 0.353796 (Simulation time: 1 hr 22 min 38 sec) 
Finished CPU 0 instructions: 100000003 cycles: 282648394 cummulative IPC: 0.353796 (Simulation time: 1 hr 22 min 38 sec) 

ChampSim completed all CPUs

Region of Interest Statistics

CPU 0 cummulative IPC: 0.353796 instructions: 100000003 cycles: 282648394
LLC TOTAL     ACCESS:    8735547  HIT:    3978654  MISS:    4756893
LLC LOAD      ACCESS:    2234765  HIT:     927473  MISS:    1307292
LLC RFO       ACCESS:     871490  HIT:     358542  MISS:     512948
LLC PREFETCH  ACCESS:    3454383  HIT:    1202836  MISS:    2251547
LLC WRITEBACK ACCESS:    2174909  HIT:    1489803  MISS:     685106
