
*** ChampSim Multicore Out-of-Order Simulator ***

Warmup Instructions: 10000000
Simulation Instructions: 100000000
Configuration: 2
Number of CPUs: 1
LLC sets: 2048
LLC ways: 16
Off-chip DRAM Channels: 1 Width: 64-bit Data Rate: 1600 MT/s

CPU 0 runs /datasets/cs240c-wi22-a00-public/data/Assignment2-gz/wrf_1228B.trace.gz
CPU 0 L1D next line prefetcher
CPU 0 L2C IP-based stride prefetcher
Heartbeat CPU 0 instructions: 1000003 cycles: 591062 heartbeat IPC: 1.69187 cumulative IPC: 1.69187 (Simulation time: 0 hr 0 min 44 sec) 
Heartbeat CPU 0 instructions: 2000002 cycles: 1111152 heartbeat IPC: 1.92274 cumulative IPC: 1.79994 (Simulation time: 0 hr 1 min 25 sec) 
Heartbeat CPU 0 instructions: 3000000 cycles: 1729111 heartbeat IPC: 1.61823 cumulative IPC: 1.735 (Simulation time: 0 hr 2 min 11 sec) 
Heartbeat CPU 0 instructions: 4000000 cycles: 2349763 heartbeat IPC: 1.61121 cumulative IPC: 1.7023 (Simulation time: 0 hr 2 min 53 sec) 
Heartbeat CPU 0 instructions: 5000000 cycles: 3052127 heartbeat IPC: 1.42376 cumulative IPC: 1.6382 (Simulation time: 0 hr 3 min 37 sec) 
Heartbeat CPU 0 instructions: 6000000 cycles: 3612218 heartbeat IPC: 1.78542 cumulative IPC: 1.66103 (Simulation time: 0 hr 4 min 14 sec) 
Heartbeat CPU 0 instructions: 7000001 cycles: 4164979 heartbeat IPC: 1.8091 cumulative IPC: 1.68068 (Simulation time: 0 hr 4 min 51 sec) 
Heartbeat CPU 0 instructions: 8000000 cycles: 4716343 heartbeat IPC: 1.81368 cumulative IPC: 1.69623 (Simulation time: 0 hr 5 min 27 sec) 
Heartbeat CPU 0 instructions: 9000002 cycles: 5266533 heartbeat IPC: 1.81756 cumulative IPC: 1.7089 (Simulation time: 0 hr 6 min 3 sec) 
Heartbeat CPU 0 instructions: 10000001 cycles: 5819429 heartbeat IPC: 1.80866 cumulative IPC: 1.71838 (Simulation time: 0 hr 6 min 41 sec) 

Warmup complete CPU 0 instructions: 10000001 cycles: 5819429 (Simulation time: 0 hr 6 min 41 sec) 

Heartbeat CPU 0 instructions: 11000000 cycles: 6678865 heartbeat IPC: 1.16355 cumulative IPC: 1.16355 (Simulation time: 0 hr 7 min 18 sec) 
Heartbeat CPU 0 instructions: 12000000 cycles: 7552568 heartbeat IPC: 1.14455 cumulative IPC: 1.15398 (Simulation time: 0 hr 7 min 59 sec) 
Heartbeat CPU 0 instructions: 13000003 cycles: 8432912 heartbeat IPC: 1.13592 cumulative IPC: 1.14789 (Simulation time: 0 hr 8 min 38 sec) 
Heartbeat CPU 0 instructions: 14000002 cycles: 9315369 heartbeat IPC: 1.1332 cumulative IPC: 1.14418 (Simulation time: 0 hr 9 min 12 sec) 
Heartbeat CPU 0 instructions: 15000001 cycles: 10147754 heartbeat IPC: 1.20137 cumulative IPC: 1.15518 (Simulation time: 0 hr 9 min 46 sec) 
Heartbeat CPU 0 instructions: 16000000 cycles: 10969441 heartbeat IPC: 1.21701 cumulative IPC: 1.16505 (Simulation time: 0 hr 10 min 20 sec) 
Heartbeat CPU 0 instructions: 17000002 cycles: 11794583 heartbeat IPC: 1.21192 cumulative IPC: 1.17152 (Simulation time: 0 hr 10 min 58 sec) 
Heartbeat CPU 0 instructions: 18000003 cycles: 12595374 heartbeat IPC: 1.24877 cumulative IPC: 1.18065 (Simulation time: 0 hr 11 min 33 sec) 
Heartbeat CPU 0 instructions: 19000000 cycles: 13390132 heartbeat IPC: 1.25824 cumulative IPC: 1.18879 (Simulation time: 0 hr 12 min 7 sec) 
Heartbeat CPU 0 instructions: 20000000 cycles: 14175441 heartbeat IPC: 1.27338 cumulative IPC: 1.19674 (Simulation time: 0 hr 12 min 40 sec) 
Heartbeat CPU 0 instructions: 21000000 cycles: 14948164 heartbeat IPC: 1.29412 cumulative IPC: 1.20499 (Simulation time: 0 hr 13 min 12 sec) 
Heartbeat CPU 0 instructions: 22000000 cycles: 15755651 heartbeat IPC: 1.23841 cumulative IPC: 1.2077 (Simulation time: 0 hr 13 min 45 sec) 
Heartbeat CPU 0 instructions: 23000003 cycles: 16703414 heartbeat IPC: 1.05512 cumulative IPC: 1.19442 (Simulation time: 0 hr 14 min 23 sec) 
Heartbeat CPU 0 instructions: 24000000 cycles: 17624862 heartbeat IPC: 1.08525 cumulative IPC: 1.18589 (Simulation time: 0 hr 15 min 2 sec) 
Heartbeat CPU 0 instructions: 25000000 cycles: 18548871 heartbeat IPC: 1.08224 cumulative IPC: 1.17837 (Simulation time: 0 hr 15 min 40 sec) 
Heartbeat CPU 0 instructions: 26000003 cycles: 19463344 heartbeat IPC: 1.09353 cumulative IPC: 1.17268 (Simulation time: 0 hr 16 min 16 sec) 
Heartbeat CPU 0 instructions: 27000003 cycles: 20375336 heartbeat IPC: 1.0965 cumulative IPC: 1.16791 (Simulation time: 0 hr 16 min 54 sec) 
Heartbeat CPU 0 instructions: 28000000 cycles: 21280845 heartbeat IPC: 1.10435 cumulative IPC: 1.16419 (Simulation time: 0 hr 17 min 31 sec) 
Heartbeat CPU 0 instructions: 29000003 cycles: 22977468 heartbeat IPC: 0.589408 cumulative IPC: 1.10735 (Simulation time: 0 hr 18 min 14 sec) 
Heartbeat CPU 0 instructions: 30000000 cycles: 24714278 heartbeat IPC: 0.575767 cumulative IPC: 1.05849 (Simulation time: 0 hr 18 min 58 sec) 
Heartbeat CPU 0 instructions: 31000003 cycles: 26513459 heartbeat IPC: 0.55581 cumulative IPC: 1.01479 (Simulation time: 0 hr 19 min 41 sec) 
Heartbeat CPU 0 instructions: 32000000 cycles: 28146543 heartbeat IPC: 0.612337 cumulative IPC: 0.985349 (Simulation time: 0 hr 20 min 23 sec) 
Heartbeat CPU 0 instructions: 33000002 cycles: 29540501 heartbeat IPC: 0.717383 cumulative IPC: 0.969602 (Simulation time: 0 hr 21 min 8 sec) 
Heartbeat CPU 0 instructions: 34000002 cycles: 30941386 heartbeat IPC: 0.713834 cumulative IPC: 0.95534 (Simulation time: 0 hr 21 min 54 sec) 
Heartbeat CPU 0 instructions: 35000001 cycles: 32627754 heartbeat IPC: 0.59299 cumulative IPC: 0.932546 (Simulation time: 0 hr 22 min 40 sec) 
Heartbeat CPU 0 instructions: 36000000 cycles: 33605056 heartbeat IPC: 1.02322 cumulative IPC: 0.935736 (Simulation time: 0 hr 23 min 17 sec) 
Heartbeat CPU 0 instructions: 37000001 cycles: 34572835 heartbeat IPC: 1.03329 cumulative IPC: 0.939019 (Simulation time: 0 hr 23 min 53 sec) 
Heartbeat CPU 0 instructions: 38000003 cycles: 35516668 heartbeat IPC: 1.05951 cumulative IPC: 0.942849 (Simulation time: 0 hr 24 min 34 sec) 
Heartbeat CPU 0 instructions: 39000002 cycles: 36497792 heartbeat IPC: 1.01924 cumulative IPC: 0.945292 (Simulation time: 0 hr 25 min 11 sec) 
Heartbeat CPU 0 instructions: 40000000 cycles: 37447237 heartbeat IPC: 1.05324 cumulative IPC: 0.948532 (Simulation time: 0 hr 25 min 49 sec) 
Heartbeat CPU 0 instructions: 41000000 cycles: 38405234 heartbeat IPC: 1.04384 cumulative IPC: 0.951334 (Simulation time: 0 hr 26 min 26 sec) 
Heartbeat CPU 0 instructions: 42000002 cycles: 39350339 heartbeat IPC: 1.05809 cumulative IPC: 0.954343 (Simulation time: 0 hr 27 min 4 sec) 
Heartbeat CPU 0 instructions: 43000002 cycles: 40315326 heartbeat IPC: 1.03628 cumulative IPC: 0.956636 (Simulation time: 0 hr 27 min 42 sec) 
Heartbeat CPU 0 instructions: 44000000 cycles: 41214112 heartbeat IPC: 1.11261 cumulative IPC: 0.960596 (Simulation time: 0 hr 28 min 16 sec) 
Heartbeat CPU 0 instructions: 45000000 cycles: 42097382 heartbeat IPC: 1.13216 cumulative IPC: 0.964773 (Simulation time: 0 hr 28 min 49 sec) 
Heartbeat CPU 0 instructions: 46000001 cycles: 42982146 heartbeat IPC: 1.13025 cumulative IPC: 0.968713 (Simulation time: 0 hr 29 min 25 sec) 
Heartbeat CPU 0 instructions: 47000001 cycles: 43872561 heartbeat IPC: 1.12307 cumulative IPC: 0.972325 (Simulation time: 0 hr 30 min 1 sec) 
Heartbeat CPU 0 instructions: 48000000 cycles: 44757753 heartbeat IPC: 1.1297 cumulative IPC: 0.975902 (Simulation time: 0 hr 30 min 34 sec) 
Heartbeat CPU 0 instructions: 49000001 cycles: 45644277 heartbeat IPC: 1.128 cumulative IPC: 0.979288 (Simulation time: 0 hr 31 min 7 sec) 
Heartbeat CPU 0 instructions: 50000002 cycles: 46535689 heartbeat IPC: 1.12182 cumulative IPC: 0.982409 (Simulation time: 0 hr 31 min 40 sec) 
Heartbeat CPU 0 instructions: 51000001 cycles: 47418782 heartbeat IPC: 1.13238 cumulative IPC: 0.985592 (Simulation time: 0 hr 32 min 13 sec) 
Heartbeat CPU 0 instructions: 52000000 cycles: 48357467 heartbeat IPC: 1.06532 cumulative IPC: 0.987352 (Simulation time: 0 hr 32 min 48 sec) 
Heartbeat CPU 0 instructions: 53000002 cycles: 49349176 heartbeat IPC: 1.00836 cumulative IPC: 0.98783 (Simulation time: 0 hr 33 min 25 sec) 
Heartbeat CPU 0 instructions: 54000001 cycles: 50349598 heartbeat IPC: 0.999577 cumulative IPC: 0.988094 (Simulation time: 0 hr 34 min 1 sec) 
Heartbeat CPU 0 instructions: 55000003 cycles: 51335423 heartbeat IPC: 1.01438 cumulative IPC: 0.988663 (Simulation time: 0 hr 34 min 40 sec) 
Heartbeat CPU 0 instructions: 56000000 cycles: 52335587 heartbeat IPC: 0.999833 cumulative IPC: 0.988904 (Simulation time: 0 hr 35 min 20 sec) 
Heartbeat CPU 0 instructions: 57000001 cycles: 53325223 heartbeat IPC: 1.01047 cumulative IPC: 0.989353 (Simulation time: 0 hr 36 min 0 sec) 
Heartbeat CPU 0 instructions: 58000000 cycles: 54311647 heartbeat IPC: 1.01376 cumulative IPC: 0.98985 (Simulation time: 0 hr 36 min 42 sec) 
Heartbeat CPU 0 instructions: 59000001 cycles: 55842755 heartbeat IPC: 0.653122 cumulative IPC: 0.979543 (Simulation time: 0 hr 37 min 34 sec) 
Heartbeat CPU 0 instructions: 60000000 cycles: 57368465 heartbeat IPC: 0.655432 cumulative IPC: 0.96995 (Simulation time: 0 hr 38 min 25 sec) 
Heartbeat CPU 0 instructions: 61000000 cycles: 59392106 heartbeat IPC: 0.494159 cumulative IPC: 0.951978 (Simulation time: 0 hr 39 min 18 sec) 
Heartbeat CPU 0 instructions: 62000000 cycles: 60980614 heartbeat IPC: 0.629522 cumulative IPC: 0.942692 (Simulation time: 0 hr 40 min 11 sec) 
Heartbeat CPU 0 instructions: 63000001 cycles: 62423061 heartbeat IPC: 0.693267 cumulative IPC: 0.936336 (Simulation time: 0 hr 41 min 1 sec) 
Heartbeat CPU 0 instructions: 64000000 cycles: 63878377 heartbeat IPC: 0.687135 cumulative IPC: 0.930089 (Simulation time: 0 hr 41 min 53 sec) 
Heartbeat CPU 0 instructions: 65000003 cycles: 65373204 heartbeat IPC: 0.668976 cumulative IPC: 0.923535 (Simulation time: 0 hr 42 min 45 sec) 
Heartbeat CPU 0 instructions: 66000000 cycles: 66868898 heartbeat IPC: 0.668584 cumulative IPC: 0.917289 (Simulation time: 0 hr 43 min 36 sec) 
Heartbeat CPU 0 instructions: 67000000 cycles: 68363573 heartbeat IPC: 0.669042 cumulative IPC: 0.911356 (Simulation time: 0 hr 44 min 27 sec) 
Heartbeat CPU 0 instructions: 68000000 cycles: 69858030 heartbeat IPC: 0.669139 cumulative IPC: 0.905704 (Simulation time: 0 hr 45 min 21 sec) 
Heartbeat CPU 0 instructions: 69000000 cycles: 71365278 heartbeat IPC: 0.663461 cumulative IPC: 0.900133 (Simulation time: 0 hr 46 min 15 sec) 
Heartbeat CPU 0 instructions: 70000001 cycles: 72861853 heartbeat IPC: 0.668193 cumulative IPC: 0.894956 (Simulation time: 0 hr 47 min 8 sec) 
Heartbeat CPU 0 instructions: 71000001 cycles: 74356250 heartbeat IPC: 0.669166 cumulative IPC: 0.890033 (Simulation time: 0 hr 47 min 59 sec) 
Heartbeat CPU 0 instructions: 72000000 cycles: 75839202 heartbeat IPC: 0.67433 cumulative IPC: 0.885464 (Simulation time: 0 hr 48 min 50 sec) 
Heartbeat CPU 0 instructions: 73000003 cycles: 77326910 heartbeat IPC: 0.672177 cumulative IPC: 0.881027 (Simulation time: 0 hr 49 min 41 sec) 
Heartbeat CPU 0 instructions: 74000000 cycles: 78824439 heartbeat IPC: 0.667765 cumulative IPC: 0.876652 (Simulation time: 0 hr 50 min 29 sec) 
Heartbeat CPU 0 instructions: 75000001 cycles: 80318411 heartbeat IPC: 0.669357 cumulative IPC: 0.872495 (Simulation time: 0 hr 51 min 18 sec) 
Heartbeat CPU 0 instructions: 76000000 cycles: 81814841 heartbeat IPC: 0.668256 cumulative IPC: 0.868473 (Simulation time: 0 hr 52 min 10 sec) 
Heartbeat CPU 0 instructions: 77000003 cycles: 83308637 heartbeat IPC: 0.669437 cumulative IPC: 0.864637 (Simulation time: 0 hr 53 min 0 sec) 
Heartbeat CPU 0 instructions: 78000001 cycles: 84803332 heartbeat IPC: 0.669032 cumulative IPC: 0.860935 (Simulation time: 0 hr 53 min 48 sec) 
Heartbeat CPU 0 instructions: 79000000 cycles: 86299884 heartbeat IPC: 0.668202 cumulative IPC: 0.857351 (Simulation time: 0 hr 54 min 39 sec) 
Heartbeat CPU 0 instructions: 80000000 cycles: 87790805 heartbeat IPC: 0.670726 cumulative IPC: 0.853957 (Simulation time: 0 hr 55 min 28 sec) 
Heartbeat CPU 0 instructions: 81000001 cycles: 89274911 heartbeat IPC: 0.673807 cumulative IPC: 0.850753 (Simulation time: 0 hr 56 min 21 sec) 
Heartbeat CPU 0 instructions: 82000000 cycles: 90757877 heartbeat IPC: 0.674324 cumulative IPC: 0.847673 (Simulation time: 0 hr 57 min 11 sec) 
Heartbeat CPU 0 instructions: 83000000 cycles: 92241581 heartbeat IPC: 0.673989 cumulative IPC: 0.844691 (Simulation time: 0 hr 57 min 56 sec) 
Heartbeat CPU 0 instructions: 84000000 cycles: 93736480 heartbeat IPC: 0.668941 cumulative IPC: 0.841702 (Simulation time: 0 hr 58 min 44 sec) 
Heartbeat CPU 0 instructions: 85000000 cycles: 95231709 heartbeat IPC: 0.668794 cumulative IPC: 0.838811 (Simulation time: 0 hr 59 min 37 sec) 
Heartbeat CPU 0 instructions: 86000000 cycles: 96725831 heartbeat IPC: 0.669289 cumulative IPC: 0.836025 (Simulation time: 1 hr 0 min 30 sec) 
Heartbeat CPU 0 instructions: 87000000 cycles: 98220678 heartbeat IPC: 0.668965 cumulative IPC: 0.833322 (Simulation time: 1 hr 1 min 21 sec) 
Heartbeat CPU 0 instructions: 88000000 cycles: 99715896 heartbeat IPC: 0.668799 cumulative IPC: 0.830702 (Simulation time: 1 hr 2 min 12 sec) 
Heartbeat CPU 0 instructions: 89000002 cycles: 101211524 heartbeat IPC: 0.668617 cumulative IPC: 0.828161 (Simulation time: 1 hr 2 min 59 sec) 
Heartbeat CPU 0 instructions: 90000000 cycles: 102695861 heartbeat IPC: 0.6737 cumulative IPC: 0.825794 (Simulation time: 1 hr 3 min 45 sec) 
Heartbeat CPU 0 instructions: 91000000 cycles: 104179456 heartbeat IPC: 0.674038 cumulative IPC: 0.823505 (Simulation time: 1 hr 4 min 29 sec) 
Heartbeat CPU 0 instructions: 92000000 cycles: 105663629 heartbeat IPC: 0.673776 cumulative IPC: 0.82128 (Simulation time: 1 hr 5 min 9 sec) 
Heartbeat CPU 0 instructions: 93000000 cycles: 107153370 heartbeat IPC: 0.671258 cumulative IPC: 0.819074 (Simulation time: 1 hr 5 min 51 sec) 
Heartbeat CPU 0 instructions: 94000003 cycles: 108647225 heartbeat IPC: 0.669411 cumulative IPC: 0.8169 (Simulation time: 1 hr 6 min 39 sec) 
Heartbeat CPU 0 instructions: 95000000 cycles: 110143431 heartbeat IPC: 0.668355 cumulative IPC: 0.814769 (Simulation time: 1 hr 7 min 22 sec) 
Heartbeat CPU 0 instructions: 96000000 cycles: 111637380 heartbeat IPC: 0.669367 cumulative IPC: 0.812717 (Simulation time: 1 hr 8 min 3 sec) 
Heartbeat CPU 0 instructions: 97000001 cycles: 113132926 heartbeat IPC: 0.668653 cumulative IPC: 0.810709 (Simulation time: 1 hr 8 min 41 sec) 
Heartbeat CPU 0 instructions: 98000003 cycles: 114628286 heartbeat IPC: 0.668737 cumulative IPC: 0.808758 (Simulation time: 1 hr 9 min 23 sec) 
Heartbeat CPU 0 instructions: 99000000 cycles: 116117393 heartbeat IPC: 0.671541 cumulative IPC: 0.806905 (Simulation time: 1 hr 9 min 59 sec) 
Heartbeat CPU 0 instructions: 100000000 cycles: 117600788 heartbeat IPC: 0.674129 cumulative IPC: 0.805143 (Simulation time: 1 hr 10 min 34 sec) 
Heartbeat CPU 0 instructions: 101000000 cycles: 119083996 heartbeat IPC: 0.674214 cumulative IPC: 0.803429 (Simulation time: 1 hr 11 min 10 sec) 
Heartbeat CPU 0 instructions: 102000003 cycles: 120567577 heartbeat IPC: 0.674047 cumulative IPC: 0.801756 (Simulation time: 1 hr 11 min 43 sec) 
Heartbeat CPU 0 instructions: 103000003 cycles: 122064256 heartbeat IPC: 0.668146 cumulative IPC: 0.800036 (Simulation time: 1 hr 12 min 16 sec) 
Heartbeat CPU 0 instructions: 104000000 cycles: 123558793 heartbeat IPC: 0.669102 cumulative IPC: 0.798374 (Simulation time: 1 hr 12 min 46 sec) 
Heartbeat CPU 0 instructions: 105000000 cycles: 125053604 heartbeat IPC: 0.668981 cumulative IPC: 0.796751 (Simulation time: 1 hr 13 min 17 sec) 
Heartbeat CPU 0 instructions: 106000000 cycles: 126548667 heartbeat IPC: 0.668868 cumulative IPC: 0.795168 (Simulation time: 1 hr 13 min 47 sec) 
Heartbeat CPU 0 instructions: 107000000 cycles: 128044521 heartbeat IPC: 0.668514 cumulative IPC: 0.793618 (Simulation time: 1 hr 14 min 16 sec) 
Heartbeat CPU 0 instructions: 108000000 cycles: 129540101 heartbeat IPC: 0.668637 cumulative IPC: 0.792107 (Simulation time: 1 hr 14 min 43 sec) 
Heartbeat CPU 0 instructions: 109000003 cycles: 131022959 heartbeat IPC: 0.674375 cumulative IPC: 0.790713 (Simulation time: 1 hr 15 min 10 sec) 
Heartbeat CPU 0 instructions: 110000001 cycles: 132506165 heartbeat IPC: 0.674214 cumulative IPC: 0.789349 (Simulation time: 1 hr 15 min 38 sec) 
Finished CPU 0 instructions: 100000000 cycles: 126686736 cummulative IPC: 0.789349 (Simulation time: 1 hr 15 min 38 sec) 

ChampSim completed all CPUs

Region of Interest Statistics

CPU 0 cummulative IPC: 0.789349 instructions: 100000000 cycles: 126686736
LLC TOTAL     ACCESS:    1495385  HIT:     503900  MISS:     991485
LLC LOAD      ACCESS:      90489  HIT:      30957  MISS:      59532
LLC RFO       ACCESS:     219210  HIT:      51925  MISS:     167285
LLC PREFETCH  ACCESS:     749541  HIT:     160189  MISS:     589352
LLC WRITEBACK ACCESS:     436145  HIT:     260829  MISS:     175316
