
*** ChampSim Multicore Out-of-Order Simulator ***

Warmup Instructions: 10000000
Simulation Instructions: 100000000
Configuration: 2
Number of CPUs: 1
LLC sets: 2048
LLC ways: 16
Off-chip DRAM Channels: 1 Width: 64-bit Data Rate: 1600 MT/s

CPU 0 runs /datasets/cs240c-wi22-a00-public/data/Assignment2-gz/GemsFDTD_109B.trace.gz
CPU 0 L1D next line prefetcher
CPU 0 L2C IP-based stride prefetcher
Heartbeat CPU 0 instructions: 1000002 cycles: 579772 heartbeat IPC: 1.72482 cumulative IPC: 1.72482 (Simulation time: 0 hr 0 min 56 sec) 
Heartbeat CPU 0 instructions: 2000001 cycles: 1159546 heartbeat IPC: 1.72481 cumulative IPC: 1.72481 (Simulation time: 0 hr 1 min 51 sec) 
Heartbeat CPU 0 instructions: 3000000 cycles: 1738734 heartbeat IPC: 1.72655 cumulative IPC: 1.72539 (Simulation time: 0 hr 2 min 48 sec) 
Heartbeat CPU 0 instructions: 4000000 cycles: 2317739 heartbeat IPC: 1.7271 cumulative IPC: 1.72582 (Simulation time: 0 hr 3 min 46 sec) 
Heartbeat CPU 0 instructions: 5000000 cycles: 2897590 heartbeat IPC: 1.72458 cumulative IPC: 1.72557 (Simulation time: 0 hr 4 min 36 sec) 
Heartbeat CPU 0 instructions: 6000002 cycles: 3478306 heartbeat IPC: 1.72202 cumulative IPC: 1.72498 (Simulation time: 0 hr 5 min 27 sec) 
Heartbeat CPU 0 instructions: 7000001 cycles: 4058971 heartbeat IPC: 1.72216 cumulative IPC: 1.72458 (Simulation time: 0 hr 6 min 16 sec) 
Heartbeat CPU 0 instructions: 8000000 cycles: 4639158 heartbeat IPC: 1.72358 cumulative IPC: 1.72445 (Simulation time: 0 hr 7 min 7 sec) 
Heartbeat CPU 0 instructions: 9000002 cycles: 5219313 heartbeat IPC: 1.72368 cumulative IPC: 1.72437 (Simulation time: 0 hr 7 min 57 sec) 
Heartbeat CPU 0 instructions: 10000001 cycles: 5799492 heartbeat IPC: 1.7236 cumulative IPC: 1.72429 (Simulation time: 0 hr 8 min 44 sec) 

Warmup complete CPU 0 instructions: 10000001 cycles: 5799492 (Simulation time: 0 hr 8 min 44 sec) 

Heartbeat CPU 0 instructions: 11000002 cycles: 6848384 heartbeat IPC: 0.953388 cumulative IPC: 0.953388 (Simulation time: 0 hr 9 min 35 sec) 
Heartbeat CPU 0 instructions: 12000000 cycles: 7900487 heartbeat IPC: 0.950475 cumulative IPC: 0.951929 (Simulation time: 0 hr 10 min 26 sec) 
Heartbeat CPU 0 instructions: 13000001 cycles: 8986767 heartbeat IPC: 0.920574 cumulative IPC: 0.941243 (Simulation time: 0 hr 11 min 19 sec) 
Heartbeat CPU 0 instructions: 14000002 cycles: 10049199 heartbeat IPC: 0.941238 cumulative IPC: 0.941242 (Simulation time: 0 hr 12 min 9 sec) 
Heartbeat CPU 0 instructions: 15000000 cycles: 11121601 heartbeat IPC: 0.932484 cumulative IPC: 0.939477 (Simulation time: 0 hr 13 min 3 sec) 
Heartbeat CPU 0 instructions: 16000000 cycles: 12185147 heartbeat IPC: 0.940251 cumulative IPC: 0.939606 (Simulation time: 0 hr 13 min 57 sec) 
Heartbeat CPU 0 instructions: 17000000 cycles: 13274205 heartbeat IPC: 0.918225 cumulative IPC: 0.936491 (Simulation time: 0 hr 14 min 56 sec) 
Heartbeat CPU 0 instructions: 18000003 cycles: 14327831 heartbeat IPC: 0.949106 cumulative IPC: 0.938049 (Simulation time: 0 hr 15 min 53 sec) 
Heartbeat CPU 0 instructions: 19000001 cycles: 15404679 heartbeat IPC: 0.928634 cumulative IPC: 0.936994 (Simulation time: 0 hr 16 min 54 sec) 
Heartbeat CPU 0 instructions: 20000000 cycles: 16564832 heartbeat IPC: 0.861954 cumulative IPC: 0.928907 (Simulation time: 0 hr 17 min 47 sec) 
Heartbeat CPU 0 instructions: 21000001 cycles: 17840048 heartbeat IPC: 0.784182 cumulative IPC: 0.913579 (Simulation time: 0 hr 18 min 37 sec) 
Heartbeat CPU 0 instructions: 22000001 cycles: 21348639 heartbeat IPC: 0.285015 cumulative IPC: 0.771747 (Simulation time: 0 hr 19 min 33 sec) 
Heartbeat CPU 0 instructions: 23000001 cycles: 22614198 heartbeat IPC: 0.790165 cumulative IPC: 0.773133 (Simulation time: 0 hr 20 min 25 sec) 
Heartbeat CPU 0 instructions: 24000000 cycles: 26296910 heartbeat IPC: 0.271539 cumulative IPC: 0.683013 (Simulation time: 0 hr 21 min 23 sec) 
Heartbeat CPU 0 instructions: 25000003 cycles: 27543925 heartbeat IPC: 0.801917 cumulative IPC: 0.689832 (Simulation time: 0 hr 22 min 14 sec) 
Heartbeat CPU 0 instructions: 26000000 cycles: 31241968 heartbeat IPC: 0.270412 cumulative IPC: 0.62887 (Simulation time: 0 hr 23 min 13 sec) 
Heartbeat CPU 0 instructions: 27000000 cycles: 32456582 heartbeat IPC: 0.823307 cumulative IPC: 0.637729 (Simulation time: 0 hr 24 min 5 sec) 
Heartbeat CPU 0 instructions: 28000000 cycles: 36011803 heartbeat IPC: 0.281276 cumulative IPC: 0.595784 (Simulation time: 0 hr 25 min 6 sec) 
Heartbeat CPU 0 instructions: 29000000 cycles: 37231534 heartbeat IPC: 0.819853 cumulative IPC: 0.604479 (Simulation time: 0 hr 26 min 5 sec) 
Heartbeat CPU 0 instructions: 30000003 cycles: 38581394 heartbeat IPC: 0.74082 cumulative IPC: 0.610093 (Simulation time: 0 hr 26 min 56 sec) 
Heartbeat CPU 0 instructions: 31000002 cycles: 39747925 heartbeat IPC: 0.857242 cumulative IPC: 0.618585 (Simulation time: 0 hr 27 min 49 sec) 
Heartbeat CPU 0 instructions: 32000000 cycles: 41064795 heartbeat IPC: 0.759375 cumulative IPC: 0.623843 (Simulation time: 0 hr 28 min 41 sec) 
Heartbeat CPU 0 instructions: 33000003 cycles: 42227500 heartbeat IPC: 0.860066 cumulative IPC: 0.631382 (Simulation time: 0 hr 29 min 38 sec) 
Heartbeat CPU 0 instructions: 34000002 cycles: 43546813 heartbeat IPC: 0.757969 cumulative IPC: 0.635807 (Simulation time: 0 hr 30 min 28 sec) 
Heartbeat CPU 0 instructions: 35000003 cycles: 44727314 heartbeat IPC: 0.847099 cumulative IPC: 0.642214 (Simulation time: 0 hr 31 min 23 sec) 
Heartbeat CPU 0 instructions: 36000000 cycles: 46095239 heartbeat IPC: 0.731032 cumulative IPC: 0.645229 (Simulation time: 0 hr 32 min 14 sec) 
Heartbeat CPU 0 instructions: 37000000 cycles: 47424735 heartbeat IPC: 0.752165 cumulative IPC: 0.648645 (Simulation time: 0 hr 33 min 17 sec) 
Heartbeat CPU 0 instructions: 38000001 cycles: 48754273 heartbeat IPC: 0.752142 cumulative IPC: 0.651848 (Simulation time: 0 hr 34 min 18 sec) 
Heartbeat CPU 0 instructions: 39000000 cycles: 50083662 heartbeat IPC: 0.752225 cumulative IPC: 0.654862 (Simulation time: 0 hr 35 min 18 sec) 
Heartbeat CPU 0 instructions: 40000000 cycles: 51413202 heartbeat IPC: 0.75214 cumulative IPC: 0.657697 (Simulation time: 0 hr 36 min 19 sec) 
Heartbeat CPU 0 instructions: 41000000 cycles: 52681077 heartbeat IPC: 0.788721 cumulative IPC: 0.66124 (Simulation time: 0 hr 37 min 11 sec) 
Heartbeat CPU 0 instructions: 42000000 cycles: 54010558 heartbeat IPC: 0.752173 cumulative IPC: 0.663748 (Simulation time: 0 hr 38 min 19 sec) 
Heartbeat CPU 0 instructions: 43000002 cycles: 55340227 heartbeat IPC: 0.752068 cumulative IPC: 0.666119 (Simulation time: 0 hr 39 min 24 sec) 
Heartbeat CPU 0 instructions: 44000000 cycles: 56669728 heartbeat IPC: 0.75216 cumulative IPC: 0.668367 (Simulation time: 0 hr 40 min 34 sec) 
Heartbeat CPU 0 instructions: 45000001 cycles: 57999053 heartbeat IPC: 0.752262 cumulative IPC: 0.670504 (Simulation time: 0 hr 41 min 46 sec) 
Heartbeat CPU 0 instructions: 46000003 cycles: 59372030 heartbeat IPC: 0.728346 cumulative IPC: 0.671986 (Simulation time: 0 hr 42 min 52 sec) 
Heartbeat CPU 0 instructions: 47000001 cycles: 60500104 heartbeat IPC: 0.886465 cumulative IPC: 0.676409 (Simulation time: 0 hr 43 min 39 sec) 
Heartbeat CPU 0 instructions: 48000000 cycles: 61874693 heartbeat IPC: 0.727489 cumulative IPC: 0.677661 (Simulation time: 0 hr 44 min 26 sec) 
Heartbeat CPU 0 instructions: 49000003 cycles: 71495446 heartbeat IPC: 0.103942 cumulative IPC: 0.593644 (Simulation time: 0 hr 46 min 28 sec) 
Heartbeat CPU 0 instructions: 50000001 cycles: 73335896 heartbeat IPC: 0.543344 cumulative IPC: 0.592273 (Simulation time: 0 hr 47 min 48 sec) 
Heartbeat CPU 0 instructions: 51000001 cycles: 74967603 heartbeat IPC: 0.612855 cumulative IPC: 0.592759 (Simulation time: 0 hr 49 min 0 sec) 
Heartbeat CPU 0 instructions: 52000000 cycles: 76599966 heartbeat IPC: 0.612608 cumulative IPC: 0.593216 (Simulation time: 0 hr 50 min 19 sec) 
Heartbeat CPU 0 instructions: 53000001 cycles: 78215075 heartbeat IPC: 0.619154 cumulative IPC: 0.593795 (Simulation time: 0 hr 51 min 30 sec) 
Heartbeat CPU 0 instructions: 54000001 cycles: 79827616 heartbeat IPC: 0.620139 cumulative IPC: 0.594369 (Simulation time: 0 hr 52 min 41 sec) 
Heartbeat CPU 0 instructions: 55000000 cycles: 81415079 heartbeat IPC: 0.629935 cumulative IPC: 0.595115 (Simulation time: 0 hr 53 min 50 sec) 
Heartbeat CPU 0 instructions: 56000000 cycles: 83019648 heartbeat IPC: 0.62322 cumulative IPC: 0.595699 (Simulation time: 0 hr 54 min 57 sec) 
Heartbeat CPU 0 instructions: 57000002 cycles: 84634694 heartbeat IPC: 0.619179 cumulative IPC: 0.59618 (Simulation time: 0 hr 56 min 9 sec) 
Heartbeat CPU 0 instructions: 58000002 cycles: 86249410 heartbeat IPC: 0.619304 cumulative IPC: 0.596645 (Simulation time: 0 hr 57 min 16 sec) 
Heartbeat CPU 0 instructions: 59000003 cycles: 87859140 heartbeat IPC: 0.621223 cumulative IPC: 0.597127 (Simulation time: 0 hr 58 min 16 sec) 
Heartbeat CPU 0 instructions: 60000000 cycles: 89483146 heartbeat IPC: 0.615759 cumulative IPC: 0.597488 (Simulation time: 0 hr 59 min 16 sec) 
Heartbeat CPU 0 instructions: 61000000 cycles: 91073738 heartbeat IPC: 0.628697 cumulative IPC: 0.59807 (Simulation time: 1 hr 0 min 18 sec) 
Heartbeat CPU 0 instructions: 62000003 cycles: 92651643 heartbeat IPC: 0.633754 cumulative IPC: 0.598719 (Simulation time: 1 hr 1 min 19 sec) 
Heartbeat CPU 0 instructions: 63000001 cycles: 94255384 heartbeat IPC: 0.623541 cumulative IPC: 0.599169 (Simulation time: 1 hr 2 min 21 sec) 
Heartbeat CPU 0 instructions: 64000000 cycles: 95874924 heartbeat IPC: 0.617459 cumulative IPC: 0.599498 (Simulation time: 1 hr 3 min 23 sec) 
Heartbeat CPU 0 instructions: 65000003 cycles: 97512426 heartbeat IPC: 0.610688 cumulative IPC: 0.599697 (Simulation time: 1 hr 4 min 28 sec) 
Heartbeat CPU 0 instructions: 66000001 cycles: 99144034 heartbeat IPC: 0.612891 cumulative IPC: 0.599928 (Simulation time: 1 hr 5 min 28 sec) 
Heartbeat CPU 0 instructions: 67000000 cycles: 100747752 heartbeat IPC: 0.62355 cumulative IPC: 0.600327 (Simulation time: 1 hr 6 min 32 sec) 
Heartbeat CPU 0 instructions: 68000000 cycles: 102373054 heartbeat IPC: 0.61527 cumulative IPC: 0.600578 (Simulation time: 1 hr 7 min 28 sec) 
Heartbeat CPU 0 instructions: 69000000 cycles: 103978125 heartbeat IPC: 0.623025 cumulative IPC: 0.600945 (Simulation time: 1 hr 8 min 21 sec) 
Heartbeat CPU 0 instructions: 70000000 cycles: 105555739 heartbeat IPC: 0.633869 cumulative IPC: 0.601466 (Simulation time: 1 hr 9 min 17 sec) 
Heartbeat CPU 0 instructions: 71000000 cycles: 107172233 heartbeat IPC: 0.618623 cumulative IPC: 0.60174 (Simulation time: 1 hr 10 min 11 sec) 
Heartbeat CPU 0 instructions: 72000000 cycles: 108759041 heartbeat IPC: 0.630196 cumulative IPC: 0.602178 (Simulation time: 1 hr 11 min 5 sec) 
Heartbeat CPU 0 instructions: 73000002 cycles: 110381162 heartbeat IPC: 0.616478 cumulative IPC: 0.6024 (Simulation time: 1 hr 11 min 52 sec) 
Heartbeat CPU 0 instructions: 74000000 cycles: 112009956 heartbeat IPC: 0.61395 cumulative IPC: 0.602577 (Simulation time: 1 hr 12 min 35 sec) 
Heartbeat CPU 0 instructions: 75000000 cycles: 113641311 heartbeat IPC: 0.612987 cumulative IPC: 0.602735 (Simulation time: 1 hr 13 min 19 sec) 
Heartbeat CPU 0 instructions: 76000000 cycles: 115230601 heartbeat IPC: 0.629212 cumulative IPC: 0.603119 (Simulation time: 1 hr 13 min 59 sec) 
Heartbeat CPU 0 instructions: 77000002 cycles: 116859440 heartbeat IPC: 0.613935 cumulative IPC: 0.603278 (Simulation time: 1 hr 14 min 38 sec) 
Heartbeat CPU 0 instructions: 78000001 cycles: 118464517 heartbeat IPC: 0.623022 cumulative IPC: 0.603559 (Simulation time: 1 hr 15 min 14 sec) 
Heartbeat CPU 0 instructions: 79000000 cycles: 120057970 heartbeat IPC: 0.627567 cumulative IPC: 0.603894 (Simulation time: 1 hr 15 min 49 sec) 
Heartbeat CPU 0 instructions: 80000000 cycles: 121654067 heartbeat IPC: 0.626528 cumulative IPC: 0.604206 (Simulation time: 1 hr 16 min 22 sec) 
Heartbeat CPU 0 instructions: 81000001 cycles: 123257452 heartbeat IPC: 0.623681 cumulative IPC: 0.604472 (Simulation time: 1 hr 16 min 54 sec) 
Heartbeat CPU 0 instructions: 82000000 cycles: 124863350 heartbeat IPC: 0.622704 cumulative IPC: 0.604717 (Simulation time: 1 hr 17 min 26 sec) 
Heartbeat CPU 0 instructions: 83000003 cycles: 126456310 heartbeat IPC: 0.627764 cumulative IPC: 0.605022 (Simulation time: 1 hr 17 min 59 sec) 
Heartbeat CPU 0 instructions: 84000000 cycles: 128059630 heartbeat IPC: 0.623704 cumulative IPC: 0.605267 (Simulation time: 1 hr 18 min 32 sec) 
Heartbeat CPU 0 instructions: 85000001 cycles: 129681547 heartbeat IPC: 0.616555 cumulative IPC: 0.605415 (Simulation time: 1 hr 19 min 3 sec) 
Heartbeat CPU 0 instructions: 86000000 cycles: 131289495 heartbeat IPC: 0.62191 cumulative IPC: 0.605626 (Simulation time: 1 hr 19 min 34 sec) 
Heartbeat CPU 0 instructions: 87000002 cycles: 132895396 heartbeat IPC: 0.622705 cumulative IPC: 0.605842 (Simulation time: 1 hr 20 min 2 sec) 
Heartbeat CPU 0 instructions: 88000000 cycles: 134518510 heartbeat IPC: 0.616098 cumulative IPC: 0.605971 (Simulation time: 1 hr 20 min 31 sec) 
Heartbeat CPU 0 instructions: 89000003 cycles: 136153475 heartbeat IPC: 0.611636 cumulative IPC: 0.606042 (Simulation time: 1 hr 20 min 59 sec) 
Heartbeat CPU 0 instructions: 90000000 cycles: 137799730 heartbeat IPC: 0.607437 cumulative IPC: 0.606059 (Simulation time: 1 hr 21 min 24 sec) 
Heartbeat CPU 0 instructions: 91000003 cycles: 139441532 heartbeat IPC: 0.609089 cumulative IPC: 0.606097 (Simulation time: 1 hr 21 min 48 sec) 
Heartbeat CPU 0 instructions: 92000000 cycles: 141059784 heartbeat IPC: 0.617949 cumulative IPC: 0.606239 (Simulation time: 1 hr 22 min 12 sec) 
Heartbeat CPU 0 instructions: 93000001 cycles: 142679215 heartbeat IPC: 0.617501 cumulative IPC: 0.606372 (Simulation time: 1 hr 22 min 35 sec) 
Heartbeat CPU 0 instructions: 94000003 cycles: 144277634 heartbeat IPC: 0.625619 cumulative IPC: 0.606594 (Simulation time: 1 hr 22 min 53 sec) 
Heartbeat CPU 0 instructions: 95000000 cycles: 145870392 heartbeat IPC: 0.62784 cumulative IPC: 0.606836 (Simulation time: 1 hr 23 min 11 sec) 
Heartbeat CPU 0 instructions: 96000000 cycles: 147478255 heartbeat IPC: 0.621944 cumulative IPC: 0.607007 (Simulation time: 1 hr 23 min 28 sec) 
Heartbeat CPU 0 instructions: 97000002 cycles: 149092551 heartbeat IPC: 0.619466 cumulative IPC: 0.607147 (Simulation time: 1 hr 23 min 46 sec) 
Heartbeat CPU 0 instructions: 98000000 cycles: 150716867 heartbeat IPC: 0.615643 cumulative IPC: 0.607243 (Simulation time: 1 hr 24 min 3 sec) 
Heartbeat CPU 0 instructions: 99000001 cycles: 152296828 heartbeat IPC: 0.632928 cumulative IPC: 0.60752 (Simulation time: 1 hr 24 min 17 sec) 
Heartbeat CPU 0 instructions: 100000000 cycles: 153922692 heartbeat IPC: 0.615057 cumulative IPC: 0.607602 (Simulation time: 1 hr 24 min 30 sec) 
Heartbeat CPU 0 instructions: 101000001 cycles: 155550059 heartbeat IPC: 0.61449 cumulative IPC: 0.607677 (Simulation time: 1 hr 24 min 42 sec) 
Heartbeat CPU 0 instructions: 102000000 cycles: 157168406 heartbeat IPC: 0.617914 cumulative IPC: 0.607787 (Simulation time: 1 hr 24 min 50 sec) 
Heartbeat CPU 0 instructions: 103000000 cycles: 158771540 heartbeat IPC: 0.623778 cumulative IPC: 0.607954 (Simulation time: 1 hr 24 min 58 sec) 
Heartbeat CPU 0 instructions: 104000000 cycles: 160392982 heartbeat IPC: 0.616735 cumulative IPC: 0.608046 (Simulation time: 1 hr 25 min 6 sec) 
Heartbeat CPU 0 instructions: 105000000 cycles: 162023046 heartbeat IPC: 0.613473 cumulative IPC: 0.608103 (Simulation time: 1 hr 25 min 12 sec) 
Heartbeat CPU 0 instructions: 106000001 cycles: 163641149 heartbeat IPC: 0.618008 cumulative IPC: 0.608204 (Simulation time: 1 hr 25 min 19 sec) 
Heartbeat CPU 0 instructions: 107000001 cycles: 165260461 heartbeat IPC: 0.617546 cumulative IPC: 0.608299 (Simulation time: 1 hr 25 min 25 sec) 
Heartbeat CPU 0 instructions: 108000000 cycles: 166881683 heartbeat IPC: 0.616818 cumulative IPC: 0.608385 (Simulation time: 1 hr 25 min 32 sec) 
Heartbeat CPU 0 instructions: 109000003 cycles: 168457359 heartbeat IPC: 0.63465 cumulative IPC: 0.608639 (Simulation time: 1 hr 25 min 38 sec) 
Heartbeat CPU 0 instructions: 110000002 cycles: 170062135 heartbeat IPC: 0.623139 cumulative IPC: 0.608781 (Simulation time: 1 hr 25 min 44 sec) 
Finished CPU 0 instructions: 100000001 cycles: 164262643 cummulative IPC: 0.608781 (Simulation time: 1 hr 25 min 44 sec) 

ChampSim completed all CPUs

Region of Interest Statistics

CPU 0 cummulative IPC: 0.608781 instructions: 100000001 cycles: 164262643
LLC TOTAL     ACCESS:    4812554  HIT:     579787  MISS:    4232767
LLC LOAD      ACCESS:     462164  HIT:      36178  MISS:     425986
LLC RFO       ACCESS:     126471  HIT:      96747  MISS:      29724
LLC PREFETCH  ACCESS:    2859628  HIT:     108094  MISS:    2751534
LLC WRITEBACK ACCESS:    1364291  HIT:     338768  MISS:    1025523
