Initialize SIGNATURE TABLE
ST_SET: 1
ST_WAY: 256
ST_TAG_BIT: 16
ST_TAG_MASK: ffff

Initialize PATTERN TABLE
PT_SET: 512
PT_WAY: 4
SIG_DELTA_BIT: 7
C_SIG_BIT: 4
C_DELTA_BIT: 4

Initialize PREFETCH FILTER
FILTER_SET: 1024

*** ChampSim Multicore Out-of-Order Simulator ***

Warmup Instructions: 50000000
Simulation Instructions: 50000000
Number of CPUs: 1
LLC sets: 2048
LLC ways: 16
Off-chip DRAM Size: 4096 MB Channels: 1 Width: 64-bit Data Rate: 3200 MT/s

CPU 0 runs /Users/gandhardeshpande/Desktop/CSE240C/HW1/ChampSim/ipc1_public/server_033.champsimtrace.xz
L1I Barca has been initializedCPU 0 L1D next line prefetcher
Heartbeat CPU 0 instructions: 10000001 cycles: 3339970 heartbeat IPC: 2.99404 cumulative IPC: 2.99404 (Simulation time: 0 hr 0 min 21 sec) 
Heartbeat CPU 0 instructions: 20000002 cycles: 6678123 heartbeat IPC: 2.99567 cumulative IPC: 2.99485 (Simulation time: 0 hr 0 min 42 sec) 
Heartbeat CPU 0 instructions: 30000001 cycles: 10006385 heartbeat IPC: 3.00457 cumulative IPC: 2.99809 (Simulation time: 0 hr 1 min 4 sec) 
Heartbeat CPU 0 instructions: 40000000 cycles: 13343488 heartbeat IPC: 2.99661 cumulative IPC: 2.99772 (Simulation time: 0 hr 1 min 28 sec) 
Heartbeat CPU 0 instructions: 50000000 cycles: 16679751 heartbeat IPC: 2.99737 cumulative IPC: 2.99765 (Simulation time: 0 hr 1 min 49 sec) 

Warmup complete CPU 0 instructions: 50000004 cycles: 16679752 (Simulation time: 0 hr 1 min 49 sec) 

Heartbeat CPU 0 instructions: 60000000 cycles: 23223406 heartbeat IPC: 1.5282 cumulative IPC: 1.5282 (Simulation time: 0 hr 2 min 12 sec) 
Heartbeat CPU 0 instructions: 70000000 cycles: 29759129 heartbeat IPC: 1.53005 cumulative IPC: 1.52912 (Simulation time: 0 hr 2 min 34 sec) 
Heartbeat CPU 0 instructions: 80000000 cycles: 37131841 heartbeat IPC: 1.35635 cumulative IPC: 1.46684 (Simulation time: 0 hr 2 min 56 sec) 
Heartbeat CPU 0 instructions: 90000003 cycles: 43737452 heartbeat IPC: 1.51386 cumulative IPC: 1.47832 (Simulation time: 0 hr 3 min 18 sec) 
Heartbeat CPU 0 instructions: 100000000 cycles: 50289738 heartbeat IPC: 1.52618 cumulative IPC: 1.48765 (Simulation time: 0 hr 3 min 41 sec) 
Finished CPU 0 instructions: 50000000 cycles: 33609993 cumulative IPC: 1.48765 (Simulation time: 0 hr 3 min 41 sec) 

ChampSim completed all CPUs

Region of Interest Statistics

CPU 0 cumulative IPC: 1.48765 instructions: 50000000 cycles: 33609993
L1D TOTAL     ACCESS:   18304431  HIT:   16822091  MISS:    1482340
L1D LOAD      ACCESS:    6176310  HIT:    5493062  MISS:     683248
L1D RFO       ACCESS:    6164763  HIT:    6015083  MISS:     149680
L1D PREFETCH  ACCESS:    5963358  HIT:    5313946  MISS:     649412
L1D WRITEBACK ACCESS:          0  HIT:          0  MISS:          0
L1D PREFETCH  REQUESTED:    6218518  ISSUED:    6099988  USEFUL:     141164  USELESS:     508255
L1D AVERAGE MISS LATENCY: 23.687 cycles
L1I TOTAL     ACCESS:   14455651  HIT:   10208294  MISS:    4247357
L1I LOAD      ACCESS:    9625707  HIT:    9296639  MISS:     329068
L1I RFO       ACCESS:          0  HIT:          0  MISS:          0
L1I PREFETCH  ACCESS:    4829944  HIT:     911655  MISS:    3918289
L1I WRITEBACK ACCESS:          0  HIT:          0  MISS:          0
L1I PREFETCH  REQUESTED:    5543396  ISSUED:    5543396  USEFUL:    3061463  USELESS:     856750
L1I AVERAGE MISS LATENCY: 14.3396 cycles
L2C TOTAL     ACCESS:    7628662  HIT:    7343341  MISS:     285321
L2C LOAD      ACCESS:     794236  HIT:     674701  MISS:     119535
L2C RFO       ACCESS:     148262  HIT:     129034  MISS:      19228
L2C PREFETCH  ACCESS:    6319706  HIT:    6174184  MISS:     145522
L2C WRITEBACK ACCESS:     366458  HIT:     365422  MISS:       1036
L2C PREFETCH  REQUESTED:    4458319  ISSUED:    4451997  USEFUL:       9077  USELESS:     136089
L2C AVERAGE MISS LATENCY: 50.4866 cycles
LLC TOTAL     ACCESS:    1654127  HIT:    1597642  MISS:      56485
LLC LOAD      ACCESS:     119524  HIT:     105412  MISS:      14112
LLC RFO       ACCESS:      19228  HIT:      15949  MISS:       3279
LLC PREFETCH  ACCESS:    1413547  HIT:    1374758  MISS:      38789
LLC WRITEBACK ACCESS:     101828  HIT:     101523  MISS:        305
LLC PREFETCH  REQUESTED:          0  ISSUED:          0  USEFUL:       5278  USELESS:      32344
LLC AVERAGE MISS LATENCY: 172.443 cycles
Major fault: 0 Minor fault: 2482
CPU 0 L1D next line prefetcher final stats

DRAM Statistics
 CHANNEL 0
 RQ ROW_BUFFER_HIT:       8399  ROW_BUFFER_MISS:      47773
 DBUS_CONGESTED:      21026
 WQ ROW_BUFFER_HIT:       3546  ROW_BUFFER_MISS:      16252  FULL:          0

 AVG_CONGESTED_CYCLE: 5

CPU 0 Branch Prediction Accuracy: 99.9029% MPKI: 0.19006 Average ROB Occupancy at Mispredict: 231.116

Branch types
NOT_BRANCH: 40217101 80.4342%
BRANCH_DIRECT_JUMP: 774599 1.5492%
BRANCH_INDIRECT: 108806 0.217612%
BRANCH_CONDITIONAL: 6379330 12.7587%
BRANCH_DIRECT_CALL: 1048808 2.09762%
BRANCH_INDIRECT_CALL: 211109 0.422218%
BRANCH_RETURN: 1259925 2.51985%
BRANCH_OTHER: 0 0%

