Initialize SIGNATURE TABLE
ST_SET: 1
ST_WAY: 256
ST_TAG_BIT: 16
ST_TAG_MASK: ffff

Initialize PATTERN TABLE
PT_SET: 512
PT_WAY: 4
SIG_DELTA_BIT: 7
C_SIG_BIT: 4
C_DELTA_BIT: 4

Initialize PREFETCH FILTER
FILTER_SET: 1024

*** ChampSim Multicore Out-of-Order Simulator ***

Warmup Instructions: 50000000
Simulation Instructions: 50000000
Number of CPUs: 1
LLC sets: 2048
LLC ways: 16
Off-chip DRAM Size: 4096 MB Channels: 1 Width: 64-bit Data Rate: 3200 MT/s

CPU 0 runs /Users/gandhardeshpande/Desktop/CSE240C/HW1/ChampSim/ipc1_public/server_025.champsimtrace.xz
L1I Barca has been initializedCPU 0 L1D next line prefetcher
Heartbeat CPU 0 instructions: 10000003 cycles: 3529357 heartbeat IPC: 2.83338 cumulative IPC: 2.83338 (Simulation time: 0 hr 0 min 21 sec) 
Heartbeat CPU 0 instructions: 20000000 cycles: 7066133 heartbeat IPC: 2.82743 cumulative IPC: 2.8304 (Simulation time: 0 hr 0 min 42 sec) 
Heartbeat CPU 0 instructions: 30000001 cycles: 10594610 heartbeat IPC: 2.83408 cumulative IPC: 2.83163 (Simulation time: 0 hr 1 min 3 sec) 
Heartbeat CPU 0 instructions: 40000003 cycles: 14129646 heartbeat IPC: 2.82883 cumulative IPC: 2.83093 (Simulation time: 0 hr 1 min 24 sec) 
Heartbeat CPU 0 instructions: 50000001 cycles: 17661931 heartbeat IPC: 2.83103 cumulative IPC: 2.83095 (Simulation time: 0 hr 1 min 44 sec) 

Warmup complete CPU 0 instructions: 50000001 cycles: 17661931 (Simulation time: 0 hr 1 min 44 sec) 

Heartbeat CPU 0 instructions: 60000002 cycles: 24579489 heartbeat IPC: 1.4456 cumulative IPC: 1.4456 (Simulation time: 0 hr 2 min 6 sec) 
Heartbeat CPU 0 instructions: 70000000 cycles: 31598763 heartbeat IPC: 1.42465 cumulative IPC: 1.43505 (Simulation time: 0 hr 2 min 27 sec) 
Heartbeat CPU 0 instructions: 80000002 cycles: 38537271 heartbeat IPC: 1.44123 cumulative IPC: 1.4371 (Simulation time: 0 hr 2 min 49 sec) 
Heartbeat CPU 0 instructions: 90000001 cycles: 45106034 heartbeat IPC: 1.52236 cumulative IPC: 1.45751 (Simulation time: 0 hr 3 min 11 sec) 
Heartbeat CPU 0 instructions: 100000003 cycles: 51365732 heartbeat IPC: 1.59752 cumulative IPC: 1.48351 (Simulation time: 0 hr 3 min 34 sec) 
Finished CPU 0 instructions: 50000002 cycles: 33703801 cumulative IPC: 1.48351 (Simulation time: 0 hr 3 min 34 sec) 

ChampSim completed all CPUs

Region of Interest Statistics

CPU 0 cumulative IPC: 1.48351 instructions: 50000002 cycles: 33703801
L1D TOTAL     ACCESS:   20046844  HIT:   18621331  MISS:    1425513
L1D LOAD      ACCESS:    6988360  HIT:    6369011  MISS:     619349
L1D RFO       ACCESS:    6381597  HIT:    6133601  MISS:     247996
L1D PREFETCH  ACCESS:    6676887  HIT:    6118719  MISS:     558168
L1D WRITEBACK ACCESS:          0  HIT:          0  MISS:          0
L1D PREFETCH  REQUESTED:    7029490  ISSUED:    6856300  USEFUL:     130815  USELESS:     427347
L1D AVERAGE MISS LATENCY: 23.242 cycles
L1I TOTAL     ACCESS:   13115241  HIT:    9837714  MISS:    3277527
L1I LOAD      ACCESS:    9427474  HIT:    9142377  MISS:     285097
L1I RFO       ACCESS:          0  HIT:          0  MISS:          0
L1I PREFETCH  ACCESS:    3687767  HIT:     695337  MISS:    2992430
L1I WRITEBACK ACCESS:          0  HIT:          0  MISS:          0
L1I PREFETCH  REQUESTED:    4243305  ISSUED:    4243305  USEFUL:    2230377  USELESS:     762125
L1I AVERAGE MISS LATENCY: 16.9966 cycles
L2C TOTAL     ACCESS:    6341902  HIT:    5643848  MISS:     698054
L2C LOAD      ACCESS:     690897  HIT:     561547  MISS:     129350
L2C RFO       ACCESS:     246523  HIT:     173965  MISS:      72558
L2C PREFETCH  ACCESS:    4907757  HIT:    4417779  MISS:     489978
L2C WRITEBACK ACCESS:     496725  HIT:     490557  MISS:       6168
L2C PREFETCH  REQUESTED:    3334852  ISSUED:    3332645  USEFUL:      12952  USELESS:     476594
L2C AVERAGE MISS LATENCY: 36.4849 cycles
LLC TOTAL     ACCESS:    1783952  HIT:    1754271  MISS:      29681
LLC LOAD      ACCESS:     129276  HIT:     125990  MISS:       3286
LLC RFO       ACCESS:      72556  HIT:      61746  MISS:      10810
LLC PREFETCH  ACCESS:    1455230  HIT:    1439867  MISS:      15363
LLC WRITEBACK ACCESS:     126890  HIT:     126668  MISS:        222
LLC PREFETCH  REQUESTED:          0  ISSUED:          0  USEFUL:       1049  USELESS:      13887
LLC AVERAGE MISS LATENCY: 174.391 cycles
Major fault: 0 Minor fault: 2457
CPU 0 L1D next line prefetcher final stats

DRAM Statistics
 CHANNEL 0
 RQ ROW_BUFFER_HIT:       9486  ROW_BUFFER_MISS:      19966
 DBUS_CONGESTED:      17653
 WQ ROW_BUFFER_HIT:       1334  ROW_BUFFER_MISS:      11391  FULL:          0

 AVG_CONGESTED_CYCLE: 6

CPU 0 Branch Prediction Accuracy: 99.8142% MPKI: 0.34676 Average ROB Occupancy at Mispredict: 191.711

Branch types
NOT_BRANCH: 40668901 81.3378%
BRANCH_DIRECT_JUMP: 531700 1.0634%
BRANCH_INDIRECT: 199025 0.39805%
BRANCH_CONDITIONAL: 6211495 12.423%
BRANCH_DIRECT_CALL: 1010911 2.02182%
BRANCH_INDIRECT_CALL: 183501 0.367002%
BRANCH_RETURN: 1194415 2.38883%
BRANCH_OTHER: 0 0%

