Initialize SIGNATURE TABLE
ST_SET: 1
ST_WAY: 256
ST_TAG_BIT: 16
ST_TAG_MASK: ffff

Initialize PATTERN TABLE
PT_SET: 512
PT_WAY: 4
SIG_DELTA_BIT: 7
C_SIG_BIT: 4
C_DELTA_BIT: 4

Initialize PREFETCH FILTER
FILTER_SET: 1024

*** ChampSim Multicore Out-of-Order Simulator ***

Warmup Instructions: 50000000
Simulation Instructions: 50000000
Number of CPUs: 1
LLC sets: 2048
LLC ways: 16
Off-chip DRAM Size: 4096 MB Channels: 1 Width: 64-bit Data Rate: 3200 MT/s

CPU 0 runs /Users/gandhardeshpande/Desktop/CSE240C/HW1/ChampSim/ipc1_public/server_039.champsimtrace.xz
L1I Barca has been initializedCPU 0 L1D next line prefetcher
Heartbeat CPU 0 instructions: 10000003 cycles: 3451817 heartbeat IPC: 2.89703 cumulative IPC: 2.89703 (Simulation time: 0 hr 0 min 21 sec) 
Heartbeat CPU 0 instructions: 20000002 cycles: 6896623 heartbeat IPC: 2.90292 cumulative IPC: 2.89997 (Simulation time: 0 hr 0 min 43 sec) 
Heartbeat CPU 0 instructions: 30000001 cycles: 10343347 heartbeat IPC: 2.90131 cumulative IPC: 2.90042 (Simulation time: 0 hr 1 min 4 sec) 
Heartbeat CPU 0 instructions: 40000002 cycles: 13785502 heartbeat IPC: 2.90516 cumulative IPC: 2.9016 (Simulation time: 0 hr 1 min 26 sec) 
Heartbeat CPU 0 instructions: 50000001 cycles: 17226913 heartbeat IPC: 2.90578 cumulative IPC: 2.90244 (Simulation time: 0 hr 1 min 47 sec) 

Warmup complete CPU 0 instructions: 50000001 cycles: 17226913 (Simulation time: 0 hr 1 min 47 sec) 

Heartbeat CPU 0 instructions: 60000000 cycles: 23072534 heartbeat IPC: 1.71068 cumulative IPC: 1.71068 (Simulation time: 0 hr 2 min 8 sec) 
Heartbeat CPU 0 instructions: 70000000 cycles: 28901622 heartbeat IPC: 1.71553 cumulative IPC: 1.7131 (Simulation time: 0 hr 2 min 29 sec) 
Heartbeat CPU 0 instructions: 80000000 cycles: 34737909 heartbeat IPC: 1.71342 cumulative IPC: 1.71321 (Simulation time: 0 hr 2 min 50 sec) 
Heartbeat CPU 0 instructions: 90000001 cycles: 40570531 heartbeat IPC: 1.71449 cumulative IPC: 1.71353 (Simulation time: 0 hr 3 min 11 sec) 
Heartbeat CPU 0 instructions: 100000002 cycles: 46411915 heartbeat IPC: 1.71192 cumulative IPC: 1.71321 (Simulation time: 0 hr 3 min 31 sec) 
Finished CPU 0 instructions: 50000001 cycles: 29185002 cumulative IPC: 1.71321 (Simulation time: 0 hr 3 min 31 sec) 

ChampSim completed all CPUs

Region of Interest Statistics

CPU 0 cumulative IPC: 1.71321 instructions: 50000001 cycles: 29185002
L1D TOTAL     ACCESS:   19964512  HIT:   19469684  MISS:     494828
L1D LOAD      ACCESS:    6528768  HIT:    6306993  MISS:     221775
L1D RFO       ACCESS:    7090327  HIT:    7023469  MISS:      66858
L1D PREFETCH  ACCESS:    6345417  HIT:    6139222  MISS:     206195
L1D WRITEBACK ACCESS:          0  HIT:          0  MISS:          0
L1D PREFETCH  REQUESTED:    6544699  ISSUED:    6415437  USEFUL:      50054  USELESS:     156145
L1D AVERAGE MISS LATENCY: 15.0755 cycles
L1I TOTAL     ACCESS:   15135850  HIT:   10111203  MISS:    5024647
L1I LOAD      ACCESS:    9256392  HIT:    8862253  MISS:     394139
L1I RFO       ACCESS:          0  HIT:          0  MISS:          0
L1I PREFETCH  ACCESS:    5879458  HIT:    1248950  MISS:    4630508
L1I WRITEBACK ACCESS:          0  HIT:          0  MISS:          0
L1I PREFETCH  REQUESTED:    6803609  ISSUED:    6803609  USEFUL:    3822257  USELESS:     808270
L1I AVERAGE MISS LATENCY: 13.7645 cycles
L2C TOTAL     ACCESS:    7457590  HIT:    7457379  MISS:        211
L2C LOAD      ACCESS:     333012  HIT:     333009  MISS:          3
L2C RFO       ACCESS:      66754  HIT:      66754  MISS:          0
L2C PREFETCH  ACCESS:    6877764  HIT:    6877556  MISS:        208
L2C WRITEBACK ACCESS:     180060  HIT:     180060  MISS:          0
L2C PREFETCH  REQUESTED:    4129710  ISSUED:    4128374  USEFUL:          1  USELESS:          0
L2C AVERAGE MISS LATENCY: 35.2607 cycles
LLC TOTAL     ACCESS:     854996  HIT:     854076  MISS:        920
LLC LOAD      ACCESS:          3  HIT:          2  MISS:          1
LLC RFO       ACCESS:          0  HIT:          0  MISS:          0
LLC PREFETCH  ACCESS:     854993  HIT:     854074  MISS:        919
LLC WRITEBACK ACCESS:          0  HIT:          0  MISS:          0
LLC PREFETCH  REQUESTED:          0  ISSUED:          0  USEFUL:          2  USELESS:          0
LLC AVERAGE MISS LATENCY: 173.228 cycles
Major fault: 0 Minor fault: 356
CPU 0 L1D next line prefetcher final stats

DRAM Statistics
 CHANNEL 0
 RQ ROW_BUFFER_HIT:         96  ROW_BUFFER_MISS:        824
 DBUS_CONGESTED:         65
 WQ ROW_BUFFER_HIT:          0  ROW_BUFFER_MISS:          0  FULL:          0

 AVG_CONGESTED_CYCLE: 4

CPU 0 Branch Prediction Accuracy: 99.9091% MPKI: 0.1547 Average ROB Occupancy at Mispredict: 248.476

Branch types
NOT_BRANCH: 41495001 82.99%
BRANCH_DIRECT_JUMP: 491308 0.982616%
BRANCH_INDIRECT: 0 0%
BRANCH_CONDITIONAL: 5595258 11.1905%
BRANCH_DIRECT_CALL: 1028408 2.05682%
BRANCH_INDIRECT_CALL: 180756 0.361512%
BRANCH_RETURN: 1209170 2.41834%
BRANCH_OTHER: 0 0%

