Initialize SIGNATURE TABLE
ST_SET: 1
ST_WAY: 256
ST_TAG_BIT: 16
ST_TAG_MASK: ffff

Initialize PATTERN TABLE
PT_SET: 512
PT_WAY: 4
SIG_DELTA_BIT: 7
C_SIG_BIT: 4
C_DELTA_BIT: 4

Initialize PREFETCH FILTER
FILTER_SET: 1024

*** ChampSim Multicore Out-of-Order Simulator ***

Warmup Instructions: 50000000
Simulation Instructions: 50000000
Number of CPUs: 1
LLC sets: 2048
LLC ways: 16
Off-chip DRAM Size: 4096 MB Channels: 1 Width: 64-bit Data Rate: 3200 MT/s

CPU 0 runs /Users/gandhardeshpande/Desktop/CSE240C/HW1/ChampSim/ipc1_public/server_013.champsimtrace.xz
L1I Barca has been initializedCPU 0 L1D next line prefetcher
Heartbeat CPU 0 instructions: 10000000 cycles: 3215265 heartbeat IPC: 3.11016 cumulative IPC: 3.11016 (Simulation time: 0 hr 0 min 18 sec) 
Heartbeat CPU 0 instructions: 20000001 cycles: 6419072 heartbeat IPC: 3.12129 cumulative IPC: 3.11572 (Simulation time: 0 hr 0 min 36 sec) 
Heartbeat CPU 0 instructions: 30000002 cycles: 9626760 heartbeat IPC: 3.11751 cumulative IPC: 3.11631 (Simulation time: 0 hr 0 min 54 sec) 
Heartbeat CPU 0 instructions: 40000002 cycles: 12829901 heartbeat IPC: 3.12194 cumulative IPC: 3.11772 (Simulation time: 0 hr 1 min 12 sec) 
Heartbeat CPU 0 instructions: 50000000 cycles: 16032812 heartbeat IPC: 3.12216 cumulative IPC: 3.1186 (Simulation time: 0 hr 1 min 30 sec) 

Warmup complete CPU 0 instructions: 50000004 cycles: 16032813 (Simulation time: 0 hr 1 min 30 sec) 

Heartbeat CPU 0 instructions: 60000000 cycles: 23499765 heartbeat IPC: 1.33923 cumulative IPC: 1.33923 (Simulation time: 0 hr 1 min 46 sec) 
Heartbeat CPU 0 instructions: 70000002 cycles: 31150899 heartbeat IPC: 1.307 cumulative IPC: 1.32292 (Simulation time: 0 hr 2 min 3 sec) 
Heartbeat CPU 0 instructions: 80000003 cycles: 38270740 heartbeat IPC: 1.40453 cumulative IPC: 1.34905 (Simulation time: 0 hr 2 min 19 sec) 
Heartbeat CPU 0 instructions: 90000003 cycles: 45575236 heartbeat IPC: 1.36902 cumulative IPC: 1.35399 (Simulation time: 0 hr 2 min 36 sec) 
Heartbeat CPU 0 instructions: 100000003 cycles: 52902021 heartbeat IPC: 1.36486 cumulative IPC: 1.35615 (Simulation time: 0 hr 2 min 53 sec) 
Finished CPU 0 instructions: 50000003 cycles: 36869209 cumulative IPC: 1.35615 (Simulation time: 0 hr 2 min 53 sec) 

ChampSim completed all CPUs

Region of Interest Statistics

CPU 0 cumulative IPC: 1.35615 instructions: 50000003 cycles: 36869209
L1D TOTAL     ACCESS:   17336906  HIT:   16270438  MISS:    1066468
L1D LOAD      ACCESS:    6323058  HIT:    5822375  MISS:     500683
L1D RFO       ACCESS:    4930561  HIT:    4850324  MISS:      80237
L1D PREFETCH  ACCESS:    6083287  HIT:    5597739  MISS:     485548
L1D WRITEBACK ACCESS:          0  HIT:          0  MISS:          0
L1D PREFETCH  REQUESTED:    6357804  ISSUED:    6263707  USEFUL:     133883  USELESS:     351674
L1D AVERAGE MISS LATENCY: 41.308 cycles
L1I TOTAL     ACCESS:   10747697  HIT:    8844553  MISS:    1903144
L1I LOAD      ACCESS:    8662766  HIT:    8462253  MISS:     200513
L1I RFO       ACCESS:          0  HIT:          0  MISS:          0
L1I PREFETCH  ACCESS:    2084931  HIT:     382300  MISS:    1702631
L1I WRITEBACK ACCESS:          0  HIT:          0  MISS:          0
L1I PREFETCH  REQUESTED:    2415859  ISSUED:    2415859  USEFUL:    1249274  USELESS:     453344
L1I AVERAGE MISS LATENCY: 28.9044 cycles
L2C TOTAL     ACCESS:    3820085  HIT:    2519358  MISS:    1300727
L2C LOAD      ACCESS:     551593  HIT:     264767  MISS:     286826
L2C RFO       ACCESS:      78812  HIT:      32089  MISS:      46723
L2C PREFETCH  ACCESS:    2913909  HIT:    1948036  MISS:     965873
L2C WRITEBACK ACCESS:     275771  HIT:     274466  MISS:       1305
L2C PREFETCH  REQUESTED:    2567605  ISSUED:    2565084  USEFUL:      28269  USELESS:     937495
L2C AVERAGE MISS LATENCY: 45.1839 cycles
LLC TOTAL     ACCESS:    2343751  HIT:    2196311  MISS:     147440
LLC LOAD      ACCESS:     286718  HIT:     264777  MISS:      21941
LLC RFO       ACCESS:      46712  HIT:      37261  MISS:       9451
LLC PREFETCH  ACCESS:    1840785  HIT:    1724957  MISS:     115828
LLC WRITEBACK ACCESS:     169536  HIT:     169316  MISS:        220
LLC PREFETCH  REQUESTED:          0  ISSUED:          0  USEFUL:      10280  USELESS:     104072
LLC AVERAGE MISS LATENCY: 173.413 cycles
Major fault: 0 Minor fault: 6200
CPU 0 L1D next line prefetcher final stats

DRAM Statistics
 CHANNEL 0
 RQ ROW_BUFFER_HIT:      24170  ROW_BUFFER_MISS:     123046
 DBUS_CONGESTED:      65694
 WQ ROW_BUFFER_HIT:      11608  ROW_BUFFER_MISS:      50383  FULL:          0

 AVG_CONGESTED_CYCLE: 5

CPU 0 Branch Prediction Accuracy: 99.4114% MPKI: 1.0933 Average ROB Occupancy at Mispredict: 118.617

Branch types
NOT_BRANCH: 40713270 81.4265%
BRANCH_DIRECT_JUMP: 463701 0.927402%
BRANCH_INDIRECT: 146544 0.293088%
BRANCH_CONDITIONAL: 6981955 13.9639%
BRANCH_DIRECT_CALL: 665005 1.33001%
BRANCH_INDIRECT_CALL: 165152 0.330304%
BRANCH_RETURN: 864314 1.72863%
BRANCH_OTHER: 0 0%

