Initialize SIGNATURE TABLE
ST_SET: 1
ST_WAY: 256
ST_TAG_BIT: 16
ST_TAG_MASK: ffff

Initialize PATTERN TABLE
PT_SET: 512
PT_WAY: 4
SIG_DELTA_BIT: 7
C_SIG_BIT: 4
C_DELTA_BIT: 4

Initialize PREFETCH FILTER
FILTER_SET: 1024

*** ChampSim Multicore Out-of-Order Simulator ***

Warmup Instructions: 50000000
Simulation Instructions: 50000000
Number of CPUs: 1
LLC sets: 2048
LLC ways: 16
Off-chip DRAM Size: 4096 MB Channels: 1 Width: 64-bit Data Rate: 3200 MT/s

CPU 0 runs /Users/gandhardeshpande/Desktop/CSE240C/HW1/ChampSim/ipc1_public/server_023.champsimtrace.xz
L1I Barca has been initializedCPU 0 L1D next line prefetcher
Heartbeat CPU 0 instructions: 10000000 cycles: 3500312 heartbeat IPC: 2.85689 cumulative IPC: 2.85689 (Simulation time: 0 hr 0 min 20 sec) 
Heartbeat CPU 0 instructions: 20000000 cycles: 7000616 heartbeat IPC: 2.85689 cumulative IPC: 2.85689 (Simulation time: 0 hr 0 min 40 sec) 
Heartbeat CPU 0 instructions: 30000001 cycles: 10494347 heartbeat IPC: 2.86227 cumulative IPC: 2.85868 (Simulation time: 0 hr 1 min 1 sec) 
Heartbeat CPU 0 instructions: 40000003 cycles: 13993358 heartbeat IPC: 2.85795 cumulative IPC: 2.8585 (Simulation time: 0 hr 1 min 21 sec) 
Heartbeat CPU 0 instructions: 50000001 cycles: 17495016 heartbeat IPC: 2.85579 cumulative IPC: 2.85796 (Simulation time: 0 hr 1 min 42 sec) 

Warmup complete CPU 0 instructions: 50000001 cycles: 17495016 (Simulation time: 0 hr 1 min 42 sec) 

Heartbeat CPU 0 instructions: 60000002 cycles: 24252952 heartbeat IPC: 1.47974 cumulative IPC: 1.47974 (Simulation time: 0 hr 2 min 3 sec) 
Heartbeat CPU 0 instructions: 70000002 cycles: 31226096 heartbeat IPC: 1.43407 cumulative IPC: 1.45655 (Simulation time: 0 hr 2 min 23 sec) 
Heartbeat CPU 0 instructions: 80000000 cycles: 38107898 heartbeat IPC: 1.45311 cumulative IPC: 1.4554 (Simulation time: 0 hr 2 min 44 sec) 
Heartbeat CPU 0 instructions: 90000000 cycles: 45015375 heartbeat IPC: 1.44771 cumulative IPC: 1.45347 (Simulation time: 0 hr 3 min 2 sec) 
Heartbeat CPU 0 instructions: 100000001 cycles: 51873534 heartbeat IPC: 1.45812 cumulative IPC: 1.4544 (Simulation time: 0 hr 3 min 23 sec) 
Finished CPU 0 instructions: 50000000 cycles: 34378518 cumulative IPC: 1.4544 (Simulation time: 0 hr 3 min 23 sec) 

ChampSim completed all CPUs

Region of Interest Statistics

CPU 0 cumulative IPC: 1.4544 instructions: 50000000 cycles: 34378518
L1D TOTAL     ACCESS:   19418996  HIT:   17952316  MISS:    1466680
L1D LOAD      ACCESS:    6877081  HIT:    6216392  MISS:     660689
L1D RFO       ACCESS:    5985104  HIT:    5723654  MISS:     261450
L1D PREFETCH  ACCESS:    6556811  HIT:    6012270  MISS:     544541
L1D WRITEBACK ACCESS:          0  HIT:          0  MISS:          0
L1D PREFETCH  REQUESTED:    6926225  ISSUED:    6807533  USEFUL:     130254  USELESS:     414295
L1D AVERAGE MISS LATENCY: 24.3588 cycles
L1I TOTAL     ACCESS:   13075542  HIT:    9807268  MISS:    3268274
L1I LOAD      ACCESS:    9365744  HIT:    9097191  MISS:     268553
L1I RFO       ACCESS:          0  HIT:          0  MISS:          0
L1I PREFETCH  ACCESS:    3709798  HIT:     710077  MISS:    2999721
L1I WRITEBACK ACCESS:          0  HIT:          0  MISS:          0
L1I PREFETCH  REQUESTED:    4249741  ISSUED:    4249741  USEFUL:    2219113  USELESS:     780562
L1I AVERAGE MISS LATENCY: 16.5255 cycles
L2C TOTAL     ACCESS:    6396842  HIT:    5751395  MISS:     645447
L2C LOAD      ACCESS:     687315  HIT:     558847  MISS:     128468
L2C RFO       ACCESS:     259306  HIT:     176524  MISS:      82782
L2C PREFETCH  ACCESS:    4951000  HIT:    4519636  MISS:     431364
L2C WRITEBACK ACCESS:     499221  HIT:     496388  MISS:       2833
L2C PREFETCH  REQUESTED:    3447282  ISSUED:    3444560  USEFUL:      16273  USELESS:     414887
L2C AVERAGE MISS LATENCY: 41.3371 cycles
LLC TOTAL     ACCESS:    1736965  HIT:    1687838  MISS:      49127
LLC LOAD      ACCESS:     128311  HIT:     122093  MISS:       6218
LLC RFO       ACCESS:      82776  HIT:      64764  MISS:      18012
LLC PREFETCH  ACCESS:    1388457  HIT:    1363761  MISS:      24696
LLC WRITEBACK ACCESS:     137421  HIT:     137220  MISS:        201
LLC PREFETCH  REQUESTED:          0  ISSUED:          0  USEFUL:       2095  USELESS:      22285
LLC AVERAGE MISS LATENCY: 182.661 cycles
Major fault: 0 Minor fault: 2766
CPU 0 L1D next line prefetcher final stats

DRAM Statistics
 CHANNEL 0
 RQ ROW_BUFFER_HIT:      14811  ROW_BUFFER_MISS:      34107
 DBUS_CONGESTED:      30444
 WQ ROW_BUFFER_HIT:       2539  ROW_BUFFER_MISS:      18968  FULL:          0

 AVG_CONGESTED_CYCLE: 6

CPU 0 Branch Prediction Accuracy: 99.6798% MPKI: 0.58608 Average ROB Occupancy at Mispredict: 140.424

Branch types
NOT_BRANCH: 40848249 81.6965%
BRANCH_DIRECT_JUMP: 548371 1.09674%
BRANCH_INDIRECT: 189802 0.379604%
BRANCH_CONDITIONAL: 6372761 12.7455%
BRANCH_DIRECT_CALL: 862206 1.72441%
BRANCH_INDIRECT_CALL: 158149 0.316298%
BRANCH_RETURN: 1020344 2.04069%
BRANCH_OTHER: 0 0%

