Initialize SIGNATURE TABLE
ST_SET: 1
ST_WAY: 256
ST_TAG_BIT: 16
ST_TAG_MASK: ffff

Initialize PATTERN TABLE
PT_SET: 512
PT_WAY: 4
SIG_DELTA_BIT: 7
C_SIG_BIT: 4
C_DELTA_BIT: 4

Initialize PREFETCH FILTER
FILTER_SET: 1024

*** ChampSim Multicore Out-of-Order Simulator ***

Warmup Instructions: 50000000
Simulation Instructions: 50000000
Number of CPUs: 1
LLC sets: 2048
LLC ways: 16
Off-chip DRAM Size: 4096 MB Channels: 1 Width: 64-bit Data Rate: 3200 MT/s

CPU 0 runs /Users/gandhardeshpande/Desktop/CSE240C/HW1/ChampSim/ipc1_public/spec_gobmk_001.champsimtrace.xz
L1I Barca has been initializedCPU 0 L1D next line prefetcher
Heartbeat CPU 0 instructions: 10000003 cycles: 3507275 heartbeat IPC: 2.85122 cumulative IPC: 2.85122 (Simulation time: 0 hr 0 min 17 sec) 
Heartbeat CPU 0 instructions: 20000002 cycles: 6987849 heartbeat IPC: 2.87309 cumulative IPC: 2.86211 (Simulation time: 0 hr 0 min 35 sec) 
Heartbeat CPU 0 instructions: 30000002 cycles: 10506930 heartbeat IPC: 2.84165 cumulative IPC: 2.85526 (Simulation time: 0 hr 0 min 52 sec) 
Heartbeat CPU 0 instructions: 40000001 cycles: 14026274 heartbeat IPC: 2.84144 cumulative IPC: 2.85179 (Simulation time: 0 hr 1 min 9 sec) 
Heartbeat CPU 0 instructions: 50000001 cycles: 17566581 heartbeat IPC: 2.82461 cumulative IPC: 2.84631 (Simulation time: 0 hr 1 min 26 sec) 

Warmup complete CPU 0 instructions: 50000001 cycles: 17566581 (Simulation time: 0 hr 1 min 26 sec) 

Heartbeat CPU 0 instructions: 60000000 cycles: 26275548 heartbeat IPC: 1.14824 cumulative IPC: 1.14824 (Simulation time: 0 hr 1 min 41 sec) 
Heartbeat CPU 0 instructions: 70000002 cycles: 34622360 heartbeat IPC: 1.19806 cumulative IPC: 1.17262 (Simulation time: 0 hr 1 min 57 sec) 
Heartbeat CPU 0 instructions: 80000003 cycles: 43404252 heartbeat IPC: 1.13871 cumulative IPC: 1.1611 (Simulation time: 0 hr 2 min 12 sec) 
Heartbeat CPU 0 instructions: 90000001 cycles: 51863522 heartbeat IPC: 1.18213 cumulative IPC: 1.16628 (Simulation time: 0 hr 2 min 26 sec) 
Heartbeat CPU 0 instructions: 100000003 cycles: 60634597 heartbeat IPC: 1.14011 cumulative IPC: 1.16095 (Simulation time: 0 hr 2 min 41 sec) 
Finished CPU 0 instructions: 50000002 cycles: 43068016 cumulative IPC: 1.16095 (Simulation time: 0 hr 2 min 41 sec) 

ChampSim completed all CPUs

Region of Interest Statistics

CPU 0 cumulative IPC: 1.16095 instructions: 50000002 cycles: 43068016
L1D TOTAL     ACCESS:   17961328  HIT:   17581812  MISS:     379516
L1D LOAD      ACCESS:    7199869  HIT:    7064379  MISS:     135490
L1D RFO       ACCESS:    3701492  HIT:    3596904  MISS:     104588
L1D PREFETCH  ACCESS:    7059967  HIT:    6920529  MISS:     139438
L1D WRITEBACK ACCESS:          0  HIT:          0  MISS:          0
L1D PREFETCH  REQUESTED:    7205259  ISSUED:    7122502  USEFUL:      44741  USELESS:      94702
L1D AVERAGE MISS LATENCY: 32.9473 cycles
L1I TOTAL     ACCESS:   10367003  HIT:    9289704  MISS:    1077299
L1I LOAD      ACCESS:    8934711  HIT:    8882886  MISS:      51825
L1I RFO       ACCESS:          0  HIT:          0  MISS:          0
L1I PREFETCH  ACCESS:    1432292  HIT:     406818  MISS:    1025474
L1I WRITEBACK ACCESS:          0  HIT:          0  MISS:          0
L1I PREFETCH  REQUESTED:    1543899  ISSUED:    1543899  USEFUL:     608488  USELESS:     416953
L1I AVERAGE MISS LATENCY: 14.8793 cycles
L2C TOTAL     ACCESS:    2032450  HIT:    1906203  MISS:     126247
L2C LOAD      ACCESS:     136520  HIT:     101718  MISS:      34802
L2C RFO       ACCESS:     104231  HIT:      70708  MISS:      33523
L2C PREFETCH  ACCESS:    1652407  HIT:    1594500  MISS:      57907
L2C WRITEBACK ACCESS:     139292  HIT:     139277  MISS:         15
L2C PREFETCH  REQUESTED:     793557  ISSUED:     793537  USEFUL:       4242  USELESS:      54175
L2C AVERAGE MISS LATENCY: 62.6126 cycles
LLC TOTAL     ACCESS:     263808  HIT:     232432  MISS:      31376
LLC LOAD      ACCESS:      34800  HIT:      26712  MISS:       8088
LLC RFO       ACCESS:      33523  HIT:      28901  MISS:       4622
LLC PREFETCH  ACCESS:     151311  HIT:     132893  MISS:      18418
LLC WRITEBACK ACCESS:      44174  HIT:      43926  MISS:        248
LLC PREFETCH  REQUESTED:          0  ISSUED:          0  USEFUL:       1304  USELESS:      15907
LLC AVERAGE MISS LATENCY: 181.788 cycles
Major fault: 0 Minor fault: 4156
CPU 0 L1D next line prefetcher final stats

DRAM Statistics
 CHANNEL 0
 RQ ROW_BUFFER_HIT:       3158  ROW_BUFFER_MISS:      27970
 DBUS_CONGESTED:      17099
 WQ ROW_BUFFER_HIT:       1049  ROW_BUFFER_MISS:      12994  FULL:          0

 AVG_CONGESTED_CYCLE: 4

CPU 0 Branch Prediction Accuracy: 94.7729% MPKI: 9.72684 Average ROB Occupancy at Mispredict: 54.6932

Branch types
NOT_BRANCH: 40695383 81.3908%
BRANCH_DIRECT_JUMP: 422107 0.844214%
BRANCH_INDIRECT: 65 0.00013%
BRANCH_CONDITIONAL: 8105005 16.21%
BRANCH_DIRECT_CALL: 374913 0.749826%
BRANCH_INDIRECT_CALL: 13657 0.027314%
BRANCH_RETURN: 388556 0.777112%
BRANCH_OTHER: 0 0%

