Initialize SIGNATURE TABLE
ST_SET: 1
ST_WAY: 256
ST_TAG_BIT: 16
ST_TAG_MASK: ffff

Initialize PATTERN TABLE
PT_SET: 512
PT_WAY: 4
SIG_DELTA_BIT: 7
C_SIG_BIT: 4
C_DELTA_BIT: 4

Initialize PREFETCH FILTER
FILTER_SET: 1024

*** ChampSim Multicore Out-of-Order Simulator ***

Warmup Instructions: 50000000
Simulation Instructions: 50000000
Number of CPUs: 1
LLC sets: 2048
LLC ways: 16
Off-chip DRAM Size: 4096 MB Channels: 1 Width: 64-bit Data Rate: 3200 MT/s

CPU 0 runs /Users/gandhardeshpande/Desktop/CSE240C/HW1/ChampSim/ipc1_public/spec_perlbench_001.champsimtrace.xz
L1I Barca has been initializedCPU 0 L1D next line prefetcher
Heartbeat CPU 0 instructions: 10000000 cycles: 3275991 heartbeat IPC: 3.05251 cumulative IPC: 3.05251 (Simulation time: 0 hr 0 min 19 sec) 
Heartbeat CPU 0 instructions: 20000000 cycles: 6540874 heartbeat IPC: 3.0629 cumulative IPC: 3.0577 (Simulation time: 0 hr 0 min 41 sec) 
Heartbeat CPU 0 instructions: 30000002 cycles: 9857647 heartbeat IPC: 3.01498 cumulative IPC: 3.04332 (Simulation time: 0 hr 1 min 3 sec) 
Heartbeat CPU 0 instructions: 40000002 cycles: 13113156 heartbeat IPC: 3.07172 cumulative IPC: 3.05037 (Simulation time: 0 hr 1 min 25 sec) 
Heartbeat CPU 0 instructions: 50000001 cycles: 16387184 heartbeat IPC: 3.05434 cumulative IPC: 3.05116 (Simulation time: 0 hr 1 min 46 sec) 

Warmup complete CPU 0 instructions: 50000001 cycles: 16387184 (Simulation time: 0 hr 1 min 46 sec) 

Heartbeat CPU 0 instructions: 60000001 cycles: 24680005 heartbeat IPC: 1.20586 cumulative IPC: 1.20586 (Simulation time: 0 hr 2 min 7 sec) 
Heartbeat CPU 0 instructions: 70000003 cycles: 32783262 heartbeat IPC: 1.23407 cumulative IPC: 1.2198 (Simulation time: 0 hr 2 min 30 sec) 
Heartbeat CPU 0 instructions: 80000000 cycles: 41199977 heartbeat IPC: 1.18811 cumulative IPC: 1.20905 (Simulation time: 0 hr 2 min 51 sec) 
Heartbeat CPU 0 instructions: 90000000 cycles: 46960733 heartbeat IPC: 1.73588 cumulative IPC: 1.30832 (Simulation time: 0 hr 3 min 10 sec) 
Heartbeat CPU 0 instructions: 100000002 cycles: 52860677 heartbeat IPC: 1.69493 cumulative IPC: 1.37086 (Simulation time: 0 hr 3 min 30 sec) 
Finished CPU 0 instructions: 50000001 cycles: 36473493 cumulative IPC: 1.37086 (Simulation time: 0 hr 3 min 30 sec) 

ChampSim completed all CPUs

Region of Interest Statistics

CPU 0 cumulative IPC: 1.37086 instructions: 50000001 cycles: 36473493
L1D TOTAL     ACCESS:   20696316  HIT:   20281230  MISS:     415086
L1D LOAD      ACCESS:    7177841  HIT:    6964194  MISS:     213647
L1D RFO       ACCESS:    6542134  HIT:    6523620  MISS:      18514
L1D PREFETCH  ACCESS:    6976341  HIT:    6793416  MISS:     182925
L1D WRITEBACK ACCESS:          0  HIT:          0  MISS:          0
L1D PREFETCH  REQUESTED:    7193476  ISSUED:    7077555  USEFUL:      55244  USELESS:     127676
L1D AVERAGE MISS LATENCY: 59.3179 cycles
L1I TOTAL     ACCESS:   10299778  HIT:    9364178  MISS:     935600
L1I LOAD      ACCESS:    9148992  HIT:    9059236  MISS:      89756
L1I RFO       ACCESS:          0  HIT:          0  MISS:          0
L1I PREFETCH  ACCESS:    1150786  HIT:     304942  MISS:     845844
L1I WRITEBACK ACCESS:          0  HIT:          0  MISS:          0
L1I PREFETCH  REQUESTED:    1323858  ISSUED:    1323858  USEFUL:     447786  USELESS:     398084
L1I AVERAGE MISS LATENCY: 15.6418 cycles
L2C TOTAL     ACCESS:    1829952  HIT:    1662701  MISS:     167251
L2C LOAD      ACCESS:     244005  HIT:     165117  MISS:      78888
L2C RFO       ACCESS:      18274  HIT:      12822  MISS:       5452
L2C PREFETCH  ACCESS:    1488726  HIT:    1406186  MISS:      82540
L2C WRITEBACK ACCESS:      78947  HIT:      78576  MISS:        371
L2C PREFETCH  REQUESTED:     966360  ISSUED:     966334  USEFUL:       4784  USELESS:      77733
L2C AVERAGE MISS LATENCY: 121.965 cycles
LLC TOTAL     ACCESS:     404668  HIT:     264248  MISS:     140420
LLC LOAD      ACCESS:      78888  HIT:      29132  MISS:      49756
LLC RFO       ACCESS:       5452  HIT:       2420  MISS:       3032
LLC PREFETCH  ACCESS:     294894  HIT:     207754  MISS:      87140
LLC WRITEBACK ACCESS:      25434  HIT:      24942  MISS:        492
LLC PREFETCH  REQUESTED:          0  ISSUED:          0  USEFUL:      12306  USELESS:      75321
LLC AVERAGE MISS LATENCY: 159.997 cycles
Major fault: 0 Minor fault: 6364
CPU 0 L1D next line prefetcher final stats

DRAM Statistics
 CHANNEL 0
 RQ ROW_BUFFER_HIT:      31991  ROW_BUFFER_MISS:     107935
 DBUS_CONGESTED:      56007
 WQ ROW_BUFFER_HIT:       4384  ROW_BUFFER_MISS:      12925  FULL:          0

 AVG_CONGESTED_CYCLE: 4

CPU 0 Branch Prediction Accuracy: 98.7418% MPKI: 2.47758 Average ROB Occupancy at Mispredict: 79.9663

Branch types
NOT_BRANCH: 40154100 80.3082%
BRANCH_DIRECT_JUMP: 817094 1.63419%
BRANCH_INDIRECT: 303787 0.607574%
BRANCH_CONDITIONAL: 7492103 14.9842%
BRANCH_DIRECT_CALL: 471777 0.943554%
BRANCH_INDIRECT_CALL: 144546 0.289092%
BRANCH_RETURN: 616324 1.23265%
BRANCH_OTHER: 0 0%

