Initialize SIGNATURE TABLE
ST_SET: 1
ST_WAY: 256
ST_TAG_BIT: 16
ST_TAG_MASK: ffff

Initialize PATTERN TABLE
PT_SET: 512
PT_WAY: 4
SIG_DELTA_BIT: 7
C_SIG_BIT: 4
C_DELTA_BIT: 4

Initialize PREFETCH FILTER
FILTER_SET: 1024

*** ChampSim Multicore Out-of-Order Simulator ***

Warmup Instructions: 50000000
Simulation Instructions: 50000000
Number of CPUs: 1
LLC sets: 2048
LLC ways: 16
Off-chip DRAM Size: 4096 MB Channels: 1 Width: 64-bit Data Rate: 3200 MT/s

CPU 0 runs /Users/gandhardeshpande/Desktop/CSE240C/HW1/ChampSim/ipc1_public/spec_gcc_002.champsimtrace.xz
L1I Barca has been initializedCPU 0 L1D next line prefetcher
Heartbeat CPU 0 instructions: 10000002 cycles: 3567274 heartbeat IPC: 2.80326 cumulative IPC: 2.80326 (Simulation time: 0 hr 0 min 14 sec) 
Heartbeat CPU 0 instructions: 20000000 cycles: 7150742 heartbeat IPC: 2.79059 cumulative IPC: 2.79691 (Simulation time: 0 hr 0 min 28 sec) 
Heartbeat CPU 0 instructions: 30000000 cycles: 10777864 heartbeat IPC: 2.75701 cumulative IPC: 2.78348 (Simulation time: 0 hr 0 min 44 sec) 
Heartbeat CPU 0 instructions: 40000000 cycles: 14344333 heartbeat IPC: 2.80389 cumulative IPC: 2.78856 (Simulation time: 0 hr 0 min 58 sec) 
Heartbeat CPU 0 instructions: 50000002 cycles: 17843679 heartbeat IPC: 2.85768 cumulative IPC: 2.80211 (Simulation time: 0 hr 1 min 10 sec) 

Warmup complete CPU 0 instructions: 50000002 cycles: 17843679 (Simulation time: 0 hr 1 min 10 sec) 

Heartbeat CPU 0 instructions: 60000001 cycles: 49497191 heartbeat IPC: 0.315921 cumulative IPC: 0.315921 (Simulation time: 0 hr 1 min 38 sec) 
Heartbeat CPU 0 instructions: 70000001 cycles: 80196120 heartbeat IPC: 0.325744 cumulative IPC: 0.320757 (Simulation time: 0 hr 2 min 6 sec) 
Heartbeat CPU 0 instructions: 80000002 cycles: 125820962 heartbeat IPC: 0.219179 cumulative IPC: 0.277836 (Simulation time: 0 hr 2 min 38 sec) 
Heartbeat CPU 0 instructions: 90000001 cycles: 166943362 heartbeat IPC: 0.243176 cumulative IPC: 0.268277 (Simulation time: 0 hr 3 min 10 sec) 
Heartbeat CPU 0 instructions: 100000000 cycles: 189993889 heartbeat IPC: 0.43383 cumulative IPC: 0.290444 (Simulation time: 0 hr 3 min 35 sec) 
Finished CPU 0 instructions: 50000002 cycles: 172150218 cumulative IPC: 0.290444 (Simulation time: 0 hr 3 min 35 sec) 

ChampSim completed all CPUs

Region of Interest Statistics

CPU 0 cumulative IPC: 0.290444 instructions: 50000002 cycles: 172150218
L1D TOTAL     ACCESS:   18323664  HIT:   13090010  MISS:    5233654
L1D LOAD      ACCESS:    6353691  HIT:    5342451  MISS:    1011240
L1D RFO       ACCESS:    7072289  HIT:    3471680  MISS:    3600609
L1D PREFETCH  ACCESS:    4897684  HIT:    4275879  MISS:     621805
L1D WRITEBACK ACCESS:          0  HIT:          0  MISS:          0
L1D PREFETCH  REQUESTED:    6373739  ISSUED:    6303398  USEFUL:     462004  USELESS:     160017
L1D AVERAGE MISS LATENCY: 317.451 cycles
L1I TOTAL     ACCESS:   13375282  HIT:   12192114  MISS:    1183168
L1I LOAD      ACCESS:   12003225  HIT:   11883658  MISS:     119567
L1I RFO       ACCESS:          0  HIT:          0  MISS:          0
L1I PREFETCH  ACCESS:    1372057  HIT:     308456  MISS:    1063601
L1I WRITEBACK ACCESS:          0  HIT:          0  MISS:          0
L1I PREFETCH  REQUESTED:    1589382  ISSUED:    1589382  USEFUL:     615419  USELESS:     448153
L1I AVERAGE MISS LATENCY: 44.3461 cycles
L2C TOTAL     ACCESS:   10625400  HIT:    5265998  MISS:    5359402
L2C LOAD      ACCESS:     306526  HIT:     122443  MISS:     184083
L2C RFO       ACCESS:    3599079  HIT:      10963  MISS:    3588116
L2C PREFETCH  ACCESS:    2994304  HIT:    1407195  MISS:    1587109
L2C WRITEBACK ACCESS:    3725491  HIT:    3725397  MISS:         94
L2C PREFETCH  REQUESTED:    3322038  ISSUED:    3321870  USEFUL:      28644  USELESS:    1558611
L2C AVERAGE MISS LATENCY: 317.006 cycles
LLC TOTAL     ACCESS:   10207540  HIT:    7066492  MISS:    3141048
LLC LOAD      ACCESS:     183965  HIT:     137370  MISS:      46595
LLC RFO       ACCESS:    3588117  HIT:     955936  MISS:    2632181
LLC PREFETCH  ACCESS:    2761984  HIT:    2299712  MISS:     462272
LLC WRITEBACK ACCESS:    3673474  HIT:    3673474  MISS:          0
LLC PREFETCH  REQUESTED:          0  ISSUED:          0  USEFUL:     181260  USELESS:     281593
LLC AVERAGE MISS LATENCY: 506.851 cycles
Major fault: 0 Minor fault: 4152
CPU 0 L1D next line prefetcher final stats

DRAM Statistics
 CHANNEL 0
 RQ ROW_BUFFER_HIT:     849825  ROW_BUFFER_MISS:    2289550
 DBUS_CONGESTED:    4909923
 WQ ROW_BUFFER_HIT:     803456  ROW_BUFFER_MISS:    2027506  FULL:          0

 AVG_CONGESTED_CYCLE: 6

CPU 0 Branch Prediction Accuracy: 99.5987% MPKI: 0.82446 Average ROB Occupancy at Mispredict: 129.032

Branch types
NOT_BRANCH: 39726807 79.4536%
BRANCH_DIRECT_JUMP: 391439 0.782878%
BRANCH_INDIRECT: 62076 0.124152%
BRANCH_CONDITIONAL: 8421541 16.8431%
BRANCH_DIRECT_CALL: 672962 1.34592%
BRANCH_INDIRECT_CALL: 26115 0.05223%
BRANCH_RETURN: 699082 1.39816%
BRANCH_OTHER: 0 0%

