
*** ChampSim Multicore Out-of-Order Simulator ***

Warmup Instructions: 50000000
Simulation Instructions: 100000000
Configuration: 2
Number of CPUs: 1
LLC sets: 2048
LLC ways: 16
Off-chip DRAM Channels: 1 Width: 64-bit Data Rate: 1600 MT/s

CPU 0 runs /datasets/cs240c-wi22-a00-public/data/Assignment2-gz/GemsFDTD_716B.trace.gz
CPU 0 L1D next line prefetcher
CPU 0 L2C IP-based stride prefetcher
config 2, num_core 1, llc_sets 2048
Heartbeat CPU 0 instructions: 1000000 cycles: 415045 heartbeat IPC: 2.40938 cumulative IPC: 2.40938 (Simulation time: 0 hr 0 min 29 sec) 
Heartbeat CPU 0 instructions: 2000003 cycles: 829979 heartbeat IPC: 2.41003 cumulative IPC: 2.4097 (Simulation time: 0 hr 1 min 2 sec) 
Heartbeat CPU 0 instructions: 3000000 cycles: 1280165 heartbeat IPC: 2.2213 cumulative IPC: 2.34345 (Simulation time: 0 hr 1 min 50 sec) 
Heartbeat CPU 0 instructions: 4000000 cycles: 1737196 heartbeat IPC: 2.18804 cumulative IPC: 2.30256 (Simulation time: 0 hr 2 min 44 sec) 
Heartbeat CPU 0 instructions: 5000000 cycles: 2152178 heartbeat IPC: 2.40974 cumulative IPC: 2.32323 (Simulation time: 0 hr 3 min 33 sec) 
Heartbeat CPU 0 instructions: 6000000 cycles: 2567198 heartbeat IPC: 2.40952 cumulative IPC: 2.33718 (Simulation time: 0 hr 4 min 20 sec) 
Heartbeat CPU 0 instructions: 7000000 cycles: 2982193 heartbeat IPC: 2.40967 cumulative IPC: 2.34727 (Simulation time: 0 hr 5 min 14 sec) 
Heartbeat CPU 0 instructions: 8000000 cycles: 3395129 heartbeat IPC: 2.42168 cumulative IPC: 2.35632 (Simulation time: 0 hr 6 min 10 sec) 
Heartbeat CPU 0 instructions: 9000001 cycles: 3841076 heartbeat IPC: 2.24242 cumulative IPC: 2.34309 (Simulation time: 0 hr 7 min 12 sec) 
Heartbeat CPU 0 instructions: 10000002 cycles: 4356307 heartbeat IPC: 1.94088 cumulative IPC: 2.29552 (Simulation time: 0 hr 8 min 29 sec) 
Heartbeat CPU 0 instructions: 11000000 cycles: 4872014 heartbeat IPC: 1.93908 cumulative IPC: 2.25779 (Simulation time: 0 hr 9 min 41 sec) 
Heartbeat CPU 0 instructions: 12000000 cycles: 5387222 heartbeat IPC: 1.94096 cumulative IPC: 2.22749 (Simulation time: 0 hr 10 min 48 sec) 
Heartbeat CPU 0 instructions: 13000002 cycles: 5902670 heartbeat IPC: 1.94006 cumulative IPC: 2.20239 (Simulation time: 0 hr 12 min 1 sec) 
Heartbeat CPU 0 instructions: 14000000 cycles: 6419628 heartbeat IPC: 1.93439 cumulative IPC: 2.18081 (Simulation time: 0 hr 13 min 18 sec) 
Heartbeat CPU 0 instructions: 15000001 cycles: 6940367 heartbeat IPC: 1.92035 cumulative IPC: 2.16127 (Simulation time: 0 hr 14 min 36 sec) 
Heartbeat CPU 0 instructions: 16000000 cycles: 7460574 heartbeat IPC: 1.92231 cumulative IPC: 2.14461 (Simulation time: 0 hr 15 min 51 sec) 
Heartbeat CPU 0 instructions: 17000001 cycles: 7981283 heartbeat IPC: 1.92046 cumulative IPC: 2.12998 (Simulation time: 0 hr 16 min 57 sec) 
Heartbeat CPU 0 instructions: 18000000 cycles: 8502210 heartbeat IPC: 1.91965 cumulative IPC: 2.1171 (Simulation time: 0 hr 18 min 12 sec) 
Heartbeat CPU 0 instructions: 19000003 cycles: 9023359 heartbeat IPC: 1.91884 cumulative IPC: 2.10565 (Simulation time: 0 hr 19 min 26 sec) 
Heartbeat CPU 0 instructions: 20000000 cycles: 9562393 heartbeat IPC: 1.85517 cumulative IPC: 2.09153 (Simulation time: 0 hr 20 min 42 sec) 
Heartbeat CPU 0 instructions: 21000000 cycles: 10104437 heartbeat IPC: 1.84487 cumulative IPC: 2.07829 (Simulation time: 0 hr 21 min 50 sec) 
Heartbeat CPU 0 instructions: 22000001 cycles: 10645564 heartbeat IPC: 1.848 cumulative IPC: 2.06659 (Simulation time: 0 hr 22 min 59 sec) 
Heartbeat CPU 0 instructions: 23000003 cycles: 11187198 heartbeat IPC: 1.84627 cumulative IPC: 2.05592 (Simulation time: 0 hr 24 min 17 sec) 
Heartbeat CPU 0 instructions: 24000000 cycles: 11729513 heartbeat IPC: 1.84394 cumulative IPC: 2.04612 (Simulation time: 0 hr 25 min 29 sec) 
Heartbeat CPU 0 instructions: 25000000 cycles: 12257873 heartbeat IPC: 1.89265 cumulative IPC: 2.03951 (Simulation time: 0 hr 26 min 47 sec) 
Heartbeat CPU 0 instructions: 26000000 cycles: 12776641 heartbeat IPC: 1.92764 cumulative IPC: 2.03496 (Simulation time: 0 hr 27 min 56 sec) 
Heartbeat CPU 0 instructions: 27000002 cycles: 13295454 heartbeat IPC: 1.92748 cumulative IPC: 2.03077 (Simulation time: 0 hr 29 min 12 sec) 
Heartbeat CPU 0 instructions: 28000000 cycles: 13813866 heartbeat IPC: 1.92896 cumulative IPC: 2.02695 (Simulation time: 0 hr 30 min 20 sec) 
Heartbeat CPU 0 instructions: 29000003 cycles: 14332125 heartbeat IPC: 1.92954 cumulative IPC: 2.02343 (Simulation time: 0 hr 31 min 30 sec) 
Heartbeat CPU 0 instructions: 30000001 cycles: 14865956 heartbeat IPC: 1.87325 cumulative IPC: 2.01803 (Simulation time: 0 hr 32 min 40 sec) 
Heartbeat CPU 0 instructions: 31000001 cycles: 15427192 heartbeat IPC: 1.78178 cumulative IPC: 2.00944 (Simulation time: 0 hr 33 min 46 sec) 
Heartbeat CPU 0 instructions: 32000000 cycles: 15988465 heartbeat IPC: 1.78166 cumulative IPC: 2.00144 (Simulation time: 0 hr 34 min 50 sec) 
Heartbeat CPU 0 instructions: 33000002 cycles: 16550712 heartbeat IPC: 1.77858 cumulative IPC: 1.99387 (Simulation time: 0 hr 36 min 1 sec) 
Heartbeat CPU 0 instructions: 34000001 cycles: 17111547 heartbeat IPC: 1.78305 cumulative IPC: 1.98696 (Simulation time: 0 hr 37 min 9 sec) 
Heartbeat CPU 0 instructions: 35000001 cycles: 17672839 heartbeat IPC: 1.7816 cumulative IPC: 1.98044 (Simulation time: 0 hr 38 min 13 sec) 
Heartbeat CPU 0 instructions: 36000000 cycles: 18235505 heartbeat IPC: 1.77725 cumulative IPC: 1.97417 (Simulation time: 0 hr 39 min 21 sec) 
Heartbeat CPU 0 instructions: 37000002 cycles: 18809903 heartbeat IPC: 1.74096 cumulative IPC: 1.96705 (Simulation time: 0 hr 40 min 26 sec) 
Heartbeat CPU 0 instructions: 38000002 cycles: 19383759 heartbeat IPC: 1.7426 cumulative IPC: 1.9604 (Simulation time: 0 hr 41 min 41 sec) 
Heartbeat CPU 0 instructions: 39000000 cycles: 19957455 heartbeat IPC: 1.74308 cumulative IPC: 1.95416 (Simulation time: 0 hr 42 min 51 sec) 
Heartbeat CPU 0 instructions: 40000000 cycles: 20531343 heartbeat IPC: 1.7425 cumulative IPC: 1.94824 (Simulation time: 0 hr 43 min 55 sec) 
Heartbeat CPU 0 instructions: 41000002 cycles: 21104812 heartbeat IPC: 1.74378 cumulative IPC: 1.94269 (Simulation time: 0 hr 45 min 5 sec) 
Heartbeat CPU 0 instructions: 42000000 cycles: 21678566 heartbeat IPC: 1.7429 cumulative IPC: 1.9374 (Simulation time: 0 hr 46 min 8 sec) 
Heartbeat CPU 0 instructions: 43000002 cycles: 22226459 heartbeat IPC: 1.82518 cumulative IPC: 1.93463 (Simulation time: 0 hr 47 min 14 sec) 
Heartbeat CPU 0 instructions: 44000000 cycles: 22760105 heartbeat IPC: 1.8739 cumulative IPC: 1.93321 (Simulation time: 0 hr 48 min 21 sec) 
Heartbeat CPU 0 instructions: 45000003 cycles: 23293589 heartbeat IPC: 1.87448 cumulative IPC: 1.93186 (Simulation time: 0 hr 49 min 30 sec) 
Heartbeat CPU 0 instructions: 46000001 cycles: 23827309 heartbeat IPC: 1.87364 cumulative IPC: 1.93056 (Simulation time: 0 hr 50 min 40 sec) 
Heartbeat CPU 0 instructions: 47000003 cycles: 24361090 heartbeat IPC: 1.87343 cumulative IPC: 1.92931 (Simulation time: 0 hr 51 min 49 sec) 
Heartbeat CPU 0 instructions: 48000000 cycles: 24900591 heartbeat IPC: 1.85356 cumulative IPC: 1.92767 (Simulation time: 0 hr 52 min 50 sec) 
Heartbeat CPU 0 instructions: 49000003 cycles: 25447566 heartbeat IPC: 1.82824 cumulative IPC: 1.92553 (Simulation time: 0 hr 54 min 3 sec) 
Heartbeat CPU 0 instructions: 50000003 cycles: 25994689 heartbeat IPC: 1.82774 cumulative IPC: 1.92347 (Simulation time: 0 hr 55 min 12 sec) 

Warmup complete CPU 0 instructions: 50000003 cycles: 25994689 (Simulation time: 0 hr 55 min 12 sec) 

Heartbeat CPU 0 instructions: 51000003 cycles: 29586742 heartbeat IPC: 0.278392 cumulative IPC: 0.278392 (Simulation time: 0 hr 56 min 58 sec) 
Heartbeat CPU 0 instructions: 52000000 cycles: 33177605 heartbeat IPC: 0.278484 cumulative IPC: 0.278438 (Simulation time: 0 hr 58 min 29 sec) 
Heartbeat CPU 0 instructions: 53000000 cycles: 36930997 heartbeat IPC: 0.266426 cumulative IPC: 0.274315 (Simulation time: 1 hr 0 min 8 sec) 
Heartbeat CPU 0 instructions: 54000001 cycles: 39735200 heartbeat IPC: 0.356608 cumulative IPC: 0.29111 (Simulation time: 1 hr 1 min 39 sec) 
Heartbeat CPU 0 instructions: 55000002 cycles: 41541764 heartbeat IPC: 0.553538 cumulative IPC: 0.321604 (Simulation time: 1 hr 3 min 0 sec) 
Heartbeat CPU 0 instructions: 56000000 cycles: 43396534 heartbeat IPC: 0.539149 cumulative IPC: 0.344791 (Simulation time: 1 hr 4 min 27 sec) 
Heartbeat CPU 0 instructions: 57000002 cycles: 45236157 heartbeat IPC: 0.543591 cumulative IPC: 0.363798 (Simulation time: 1 hr 5 min 45 sec) 
Heartbeat CPU 0 instructions: 58000001 cycles: 47013262 heartbeat IPC: 0.562712 cumulative IPC: 0.380616 (Simulation time: 1 hr 7 min 4 sec) 
Heartbeat CPU 0 instructions: 59000002 cycles: 49164626 heartbeat IPC: 0.464822 cumulative IPC: 0.388434 (Simulation time: 1 hr 8 min 22 sec) 
Heartbeat CPU 0 instructions: 60000000 cycles: 50696512 heartbeat IPC: 0.652789 cumulative IPC: 0.404828 (Simulation time: 1 hr 9 min 31 sec) 
Heartbeat CPU 0 instructions: 61000002 cycles: 52230770 heartbeat IPC: 0.651782 cumulative IPC: 0.41927 (Simulation time: 1 hr 10 min 39 sec) 
Heartbeat CPU 0 instructions: 62000000 cycles: 53772045 heartbeat IPC: 0.648812 cumulative IPC: 0.432006 (Simulation time: 1 hr 11 min 48 sec) 
Heartbeat CPU 0 instructions: 63000000 cycles: 55337146 heartbeat IPC: 0.638936 cumulative IPC: 0.443044 (Simulation time: 1 hr 13 min 3 sec) 
Heartbeat CPU 0 instructions: 64000000 cycles: 57185875 heartbeat IPC: 0.540912 cumulative IPC: 0.448845 (Simulation time: 1 hr 14 min 10 sec) 
Heartbeat CPU 0 instructions: 65000001 cycles: 58530941 heartbeat IPC: 0.743459 cumulative IPC: 0.461024 (Simulation time: 1 hr 15 min 11 sec) 
Heartbeat CPU 0 instructions: 66000003 cycles: 59874030 heartbeat IPC: 0.744554 cumulative IPC: 0.472264 (Simulation time: 1 hr 16 min 5 sec) 
Heartbeat CPU 0 instructions: 67000003 cycles: 61217285 heartbeat IPC: 0.74446 cumulative IPC: 0.482645 (Simulation time: 1 hr 16 min 55 sec) 
Heartbeat CPU 0 instructions: 68000000 cycles: 62557055 heartbeat IPC: 0.746395 cumulative IPC: 0.492309 (Simulation time: 1 hr 17 min 38 sec) 
Heartbeat CPU 0 instructions: 69000000 cycles: 63892669 heartbeat IPC: 0.748719 cumulative IPC: 0.501346 (Simulation time: 1 hr 18 min 21 sec) 
Heartbeat CPU 0 instructions: 70000000 cycles: 65720485 heartbeat IPC: 0.547101 cumulative IPC: 0.503451 (Simulation time: 1 hr 19 min 0 sec) 
Heartbeat CPU 0 instructions: 71000000 cycles: 67126445 heartbeat IPC: 0.711258 cumulative IPC: 0.510554 (Simulation time: 1 hr 19 min 42 sec) 
Heartbeat CPU 0 instructions: 72000000 cycles: 68490216 heartbeat IPC: 0.733261 cumulative IPC: 0.517701 (Simulation time: 1 hr 20 min 21 sec) 
Heartbeat CPU 0 instructions: 73000002 cycles: 69851533 heartbeat IPC: 0.734584 cumulative IPC: 0.524433 (Simulation time: 1 hr 20 min 55 sec) 
Heartbeat CPU 0 instructions: 74000000 cycles: 71221687 heartbeat IPC: 0.729843 cumulative IPC: 0.530656 (Simulation time: 1 hr 21 min 30 sec) 
Heartbeat CPU 0 instructions: 75000000 cycles: 72597837 heartbeat IPC: 0.726665 cumulative IPC: 0.536444 (Simulation time: 1 hr 22 min 5 sec) 
Heartbeat CPU 0 instructions: 76000000 cycles: 73966720 heartbeat IPC: 0.730523 cumulative IPC: 0.541982 (Simulation time: 1 hr 22 min 37 sec) 
Heartbeat CPU 0 instructions: 77000001 cycles: 77690108 heartbeat IPC: 0.268573 cumulative IPC: 0.52229 (Simulation time: 1 hr 23 min 15 sec) 
Heartbeat CPU 0 instructions: 78000000 cycles: 81122038 heartbeat IPC: 0.291381 cumulative IPC: 0.507915 (Simulation time: 1 hr 23 min 55 sec) 
Heartbeat CPU 0 instructions: 79000002 cycles: 84571209 heartbeat IPC: 0.289925 cumulative IPC: 0.495079 (Simulation time: 1 hr 24 min 32 sec) 
Heartbeat CPU 0 instructions: 80000000 cycles: 88067702 heartbeat IPC: 0.286 cumulative IPC: 0.483302 (Simulation time: 1 hr 25 min 7 sec) 
Heartbeat CPU 0 instructions: 81000000 cycles: 91614294 heartbeat IPC: 0.281961 cumulative IPC: 0.47242 (Simulation time: 1 hr 25 min 40 sec) 
Heartbeat CPU 0 instructions: 82000002 cycles: 95801030 heartbeat IPC: 0.23885 cumulative IPC: 0.458411 (Simulation time: 1 hr 26 min 12 sec) 
Heartbeat CPU 0 instructions: 83000002 cycles: 99457473 heartbeat IPC: 0.27349 cumulative IPC: 0.449207 (Simulation time: 1 hr 26 min 42 sec) 
Heartbeat CPU 0 instructions: 84000000 cycles: 103090119 heartbeat IPC: 0.275281 cumulative IPC: 0.441012 (Simulation time: 1 hr 27 min 11 sec) 
Heartbeat CPU 0 instructions: 85000000 cycles: 106716504 heartbeat IPC: 0.275757 cumulative IPC: 0.433588 (Simulation time: 1 hr 27 min 36 sec) 
Heartbeat CPU 0 instructions: 86000000 cycles: 110345489 heartbeat IPC: 0.275559 cumulative IPC: 0.426789 (Simulation time: 1 hr 28 min 1 sec) 
Heartbeat CPU 0 instructions: 87000000 cycles: 114315159 heartbeat IPC: 0.25191 cumulative IPC: 0.418929 (Simulation time: 1 hr 28 min 27 sec) 
Heartbeat CPU 0 instructions: 88000000 cycles: 116177342 heartbeat IPC: 0.537004 cumulative IPC: 0.421367 (Simulation time: 1 hr 28 min 47 sec) 
Heartbeat CPU 0 instructions: 89000001 cycles: 117789155 heartbeat IPC: 0.62042 cumulative IPC: 0.424862 (Simulation time: 1 hr 29 min 2 sec) 
Heartbeat CPU 0 instructions: 90000001 cycles: 119402737 heartbeat IPC: 0.619739 cumulative IPC: 0.428229 (Simulation time: 1 hr 29 min 15 sec) 
Heartbeat CPU 0 instructions: 91000001 cycles: 121013533 heartbeat IPC: 0.620811 cumulative IPC: 0.431493 (Simulation time: 1 hr 29 min 27 sec) 
Heartbeat CPU 0 instructions: 92000000 cycles: 122625249 heartbeat IPC: 0.620456 cumulative IPC: 0.434645 (Simulation time: 1 hr 29 min 39 sec) 
Heartbeat CPU 0 instructions: 93000002 cycles: 124468698 heartbeat IPC: 0.542463 cumulative IPC: 0.436663 (Simulation time: 1 hr 29 min 50 sec) 
Heartbeat CPU 0 instructions: 94000001 cycles: 125877048 heartbeat IPC: 0.71005 cumulative IPC: 0.440518 (Simulation time: 1 hr 30 min 1 sec) 
Heartbeat CPU 0 instructions: 95000000 cycles: 127277564 heartbeat IPC: 0.714022 cumulative IPC: 0.4443 (Simulation time: 1 hr 30 min 12 sec) 
Heartbeat CPU 0 instructions: 96000000 cycles: 128688844 heartbeat IPC: 0.708577 cumulative IPC: 0.447932 (Simulation time: 1 hr 30 min 21 sec) 
Heartbeat CPU 0 instructions: 97000001 cycles: 130100109 heartbeat IPC: 0.708585 cumulative IPC: 0.451465 (Simulation time: 1 hr 30 min 29 sec) 
Heartbeat CPU 0 instructions: 98000000 cycles: 131779138 heartbeat IPC: 0.595582 cumulative IPC: 0.453753 (Simulation time: 1 hr 30 min 37 sec) 
Heartbeat CPU 0 instructions: 99000001 cycles: 133142519 heartbeat IPC: 0.733471 cumulative IPC: 0.457312 (Simulation time: 1 hr 30 min 43 sec) 
Heartbeat CPU 0 instructions: 100000000 cycles: 134509115 heartbeat IPC: 0.731744 cumulative IPC: 0.460768 (Simulation time: 1 hr 30 min 49 sec) 
Heartbeat CPU 0 instructions: 101000002 cycles: 135870660 heartbeat IPC: 0.734461 cumulative IPC: 0.46416 (Simulation time: 1 hr 30 min 55 sec) 
Heartbeat CPU 0 instructions: 102000003 cycles: 137236028 heartbeat IPC: 0.732404 cumulative IPC: 0.467452 (Simulation time: 1 hr 31 min 1 sec) 
Heartbeat CPU 0 instructions: 103000000 cycles: 138603936 heartbeat IPC: 0.731041 cumulative IPC: 0.470654 (Simulation time: 1 hr 31 min 8 sec) 
Heartbeat CPU 0 instructions: 104000000 cycles: 140617808 heartbeat IPC: 0.496556 cumulative IPC: 0.471109 (Simulation time: 1 hr 31 min 14 sec) 
Heartbeat CPU 0 instructions: 105000003 cycles: 142017010 heartbeat IPC: 0.714695 cumulative IPC: 0.474047 (Simulation time: 1 hr 31 min 20 sec) 
Heartbeat CPU 0 instructions: 106000001 cycles: 143411637 heartbeat IPC: 0.717036 cumulative IPC: 0.476933 (Simulation time: 1 hr 31 min 27 sec) 
Heartbeat CPU 0 instructions: 107000001 cycles: 144810768 heartbeat IPC: 0.714729 cumulative IPC: 0.479733 (Simulation time: 1 hr 31 min 33 sec) 
Heartbeat CPU 0 instructions: 108000000 cycles: 146191056 heartbeat IPC: 0.724486 cumulative IPC: 0.482544 (Simulation time: 1 hr 31 min 39 sec) 
Heartbeat CPU 0 instructions: 109000000 cycles: 147594497 heartbeat IPC: 0.712534 cumulative IPC: 0.485198 (Simulation time: 1 hr 31 min 46 sec) 
Heartbeat CPU 0 instructions: 110000002 cycles: 149385996 heartbeat IPC: 0.558193 cumulative IPC: 0.486258 (Simulation time: 1 hr 31 min 52 sec) 
Heartbeat CPU 0 instructions: 111000002 cycles: 153101743 heartbeat IPC: 0.269125 cumulative IPC: 0.47991 (Simulation time: 1 hr 32 min 1 sec) 
Heartbeat CPU 0 instructions: 112000000 cycles: 156490698 heartbeat IPC: 0.295076 cumulative IPC: 0.47511 (Simulation time: 1 hr 32 min 8 sec) 
Heartbeat CPU 0 instructions: 113000001 cycles: 159851305 heartbeat IPC: 0.297566 cumulative IPC: 0.470653 (Simulation time: 1 hr 32 min 17 sec) 
Heartbeat CPU 0 instructions: 114000000 cycles: 163232750 heartbeat IPC: 0.295731 cumulative IPC: 0.466343 (Simulation time: 1 hr 32 min 25 sec) 
Heartbeat CPU 0 instructions: 115000002 cycles: 166640513 heartbeat IPC: 0.293448 cumulative IPC: 0.462154 (Simulation time: 1 hr 32 min 33 sec) 
Heartbeat CPU 0 instructions: 116000000 cycles: 171204536 heartbeat IPC: 0.219104 cumulative IPC: 0.454515 (Simulation time: 1 hr 32 min 42 sec) 
Heartbeat CPU 0 instructions: 117000000 cycles: 174977394 heartbeat IPC: 0.265051 cumulative IPC: 0.449717 (Simulation time: 1 hr 32 min 50 sec) 
Heartbeat CPU 0 instructions: 118000000 cycles: 178586294 heartbeat IPC: 0.277093 cumulative IPC: 0.445634 (Simulation time: 1 hr 32 min 58 sec) 
Heartbeat CPU 0 instructions: 119000003 cycles: 182199289 heartbeat IPC: 0.27678 cumulative IPC: 0.441728 (Simulation time: 1 hr 33 min 6 sec) 
Heartbeat CPU 0 instructions: 120000000 cycles: 185804350 heartbeat IPC: 0.277387 cumulative IPC: 0.438021 (Simulation time: 1 hr 33 min 13 sec) 
Heartbeat CPU 0 instructions: 121000001 cycles: 189735696 heartbeat IPC: 0.254366 cumulative IPC: 0.433612 (Simulation time: 1 hr 33 min 20 sec) 
Heartbeat CPU 0 instructions: 122000001 cycles: 191717916 heartbeat IPC: 0.504485 cumulative IPC: 0.434459 (Simulation time: 1 hr 33 min 26 sec) 
Heartbeat CPU 0 instructions: 123000000 cycles: 193665797 heartbeat IPC: 0.513378 cumulative IPC: 0.435376 (Simulation time: 1 hr 33 min 32 sec) 
Heartbeat CPU 0 instructions: 124000000 cycles: 195627629 heartbeat IPC: 0.509728 cumulative IPC: 0.436236 (Simulation time: 1 hr 33 min 38 sec) 
Heartbeat CPU 0 instructions: 125000001 cycles: 197569956 heartbeat IPC: 0.514847 cumulative IPC: 0.437126 (Simulation time: 1 hr 33 min 43 sec) 
Heartbeat CPU 0 instructions: 126000001 cycles: 199957220 heartbeat IPC: 0.41889 cumulative IPC: 0.436876 (Simulation time: 1 hr 33 min 50 sec) 
Heartbeat CPU 0 instructions: 127000000 cycles: 201894962 heartbeat IPC: 0.516064 cumulative IPC: 0.437748 (Simulation time: 1 hr 33 min 56 sec) 
Heartbeat CPU 0 instructions: 128000000 cycles: 203851229 heartbeat IPC: 0.511178 cumulative IPC: 0.438556 (Simulation time: 1 hr 34 min 2 sec) 
Heartbeat CPU 0 instructions: 129000000 cycles: 205745695 heartbeat IPC: 0.527853 cumulative IPC: 0.439497 (Simulation time: 1 hr 34 min 7 sec) 
Heartbeat CPU 0 instructions: 130000003 cycles: 207684564 heartbeat IPC: 0.515766 cumulative IPC: 0.440311 (Simulation time: 1 hr 34 min 13 sec) 
Heartbeat CPU 0 instructions: 131000001 cycles: 209652949 heartbeat IPC: 0.50803 cumulative IPC: 0.441037 (Simulation time: 1 hr 34 min 18 sec) 
Heartbeat CPU 0 instructions: 132000000 cycles: 211458833 heartbeat IPC: 0.553745 cumulative IPC: 0.442134 (Simulation time: 1 hr 34 min 23 sec) 
Heartbeat CPU 0 instructions: 133000000 cycles: 212805333 heartbeat IPC: 0.742666 cumulative IPC: 0.4443 (Simulation time: 1 hr 34 min 28 sec) 
Heartbeat CPU 0 instructions: 134000003 cycles: 214156360 heartbeat IPC: 0.74018 cumulative IPC: 0.446425 (Simulation time: 1 hr 34 min 33 sec) 
Heartbeat CPU 0 instructions: 135000001 cycles: 215508524 heartbeat IPC: 0.739554 cumulative IPC: 0.448516 (Simulation time: 1 hr 34 min 38 sec) 
Heartbeat CPU 0 instructions: 136000000 cycles: 216860079 heartbeat IPC: 0.739888 cumulative IPC: 0.450579 (Simulation time: 1 hr 34 min 42 sec) 
Heartbeat CPU 0 instructions: 137000001 cycles: 218210490 heartbeat IPC: 0.740516 cumulative IPC: 0.452616 (Simulation time: 1 hr 34 min 47 sec) 
Heartbeat CPU 0 instructions: 138000000 cycles: 220004938 heartbeat IPC: 0.557274 cumulative IPC: 0.453584 (Simulation time: 1 hr 34 min 53 sec) 
Heartbeat CPU 0 instructions: 139000001 cycles: 221376144 heartbeat IPC: 0.729286 cumulative IPC: 0.455519 (Simulation time: 1 hr 34 min 59 sec) 
Heartbeat CPU 0 instructions: 140000000 cycles: 222746302 heartbeat IPC: 0.729842 cumulative IPC: 0.45743 (Simulation time: 1 hr 35 min 4 sec) 
Heartbeat CPU 0 instructions: 141000000 cycles: 224128777 heartbeat IPC: 0.72334 cumulative IPC: 0.459285 (Simulation time: 1 hr 35 min 10 sec) 
Heartbeat CPU 0 instructions: 142000002 cycles: 225500093 heartbeat IPC: 0.729228 cumulative IPC: 0.46114 (Simulation time: 1 hr 35 min 15 sec) 
Heartbeat CPU 0 instructions: 143000000 cycles: 226869193 heartbeat IPC: 0.730405 cumulative IPC: 0.462976 (Simulation time: 1 hr 35 min 20 sec) 
Heartbeat CPU 0 instructions: 144000000 cycles: 228281394 heartbeat IPC: 0.708115 cumulative IPC: 0.464687 (Simulation time: 1 hr 35 min 25 sec) 
Heartbeat CPU 0 instructions: 145000000 cycles: 229863932 heartbeat IPC: 0.631896 cumulative IPC: 0.465985 (Simulation time: 1 hr 35 min 29 sec) 
Heartbeat CPU 0 instructions: 146000001 cycles: 231438308 heartbeat IPC: 0.635173 cumulative IPC: 0.467281 (Simulation time: 1 hr 35 min 34 sec) 
Heartbeat CPU 0 instructions: 147000003 cycles: 233038316 heartbeat IPC: 0.624998 cumulative IPC: 0.4685 (Simulation time: 1 hr 35 min 39 sec) 
Heartbeat CPU 0 instructions: 148000000 cycles: 234642606 heartbeat IPC: 0.623327 cumulative IPC: 0.469691 (Simulation time: 1 hr 35 min 44 sec) 
Heartbeat CPU 0 instructions: 149000002 cycles: 236224994 heartbeat IPC: 0.631958 cumulative IPC: 0.470912 (Simulation time: 1 hr 35 min 48 sec) 
Heartbeat CPU 0 instructions: 150000003 cycles: 237837658 heartbeat IPC: 0.620093 cumulative IPC: 0.472048 (Simulation time: 1 hr 35 min 53 sec) 
Finished CPU 0 instructions: 100000000 cycles: 211842969 cummulative IPC: 0.472048 (Simulation time: 1 hr 35 min 53 sec) 

ChampSim completed all CPUs

Region of Interest Statistics

CPU 0 cummulative IPC: 0.472048 instructions: 100000000 cycles: 211842969
LLC TOTAL     ACCESS:   12343228  HIT:    9753564  MISS:    2589664
LLC LOAD      ACCESS:    4934474  HIT:    4147174  MISS:     787300
LLC RFO       ACCESS:         16  HIT:          0  MISS:         16
LLC PREFETCH  ACCESS:    6499333  HIT:    4814386  MISS:    1684947
LLC WRITEBACK ACCESS:     909405  HIT:     792004  MISS:     117401
