
*** ChampSim Multicore Out-of-Order Simulator ***

Warmup Instructions: 50000000
Simulation Instructions: 100000000
Configuration: 2
Number of CPUs: 1
LLC sets: 2048
LLC ways: 16
Off-chip DRAM Channels: 1 Width: 64-bit Data Rate: 1600 MT/s

CPU 0 runs /datasets/cs240c-wi22-a00-public/data/Assignment2-gz/astar_163B.trace.gz
CPU 0 L1D next line prefetcher
CPU 0 L2C IP-based stride prefetcher
config 2, num_core 1, llc_sets 2048
Heartbeat CPU 0 instructions: 1000002 cycles: 531204 heartbeat IPC: 1.88252 cumulative IPC: 1.88252 (Simulation time: 0 hr 0 min 35 sec) 
Heartbeat CPU 0 instructions: 2000003 cycles: 1060741 heartbeat IPC: 1.88844 cumulative IPC: 1.88548 (Simulation time: 0 hr 1 min 9 sec) 
Heartbeat CPU 0 instructions: 3000003 cycles: 1590726 heartbeat IPC: 1.88685 cumulative IPC: 1.88593 (Simulation time: 0 hr 1 min 44 sec) 
Heartbeat CPU 0 instructions: 4000000 cycles: 2120841 heartbeat IPC: 1.88638 cumulative IPC: 1.88604 (Simulation time: 0 hr 2 min 19 sec) 
Heartbeat CPU 0 instructions: 5000000 cycles: 2652747 heartbeat IPC: 1.88003 cumulative IPC: 1.88484 (Simulation time: 0 hr 2 min 50 sec) 
Heartbeat CPU 0 instructions: 6000002 cycles: 3181253 heartbeat IPC: 1.89213 cumulative IPC: 1.88605 (Simulation time: 0 hr 3 min 26 sec) 
Heartbeat CPU 0 instructions: 7000003 cycles: 3710794 heartbeat IPC: 1.88843 cumulative IPC: 1.88639 (Simulation time: 0 hr 4 min 2 sec) 
Heartbeat CPU 0 instructions: 8000000 cycles: 4240067 heartbeat IPC: 1.88938 cumulative IPC: 1.88676 (Simulation time: 0 hr 4 min 38 sec) 
Heartbeat CPU 0 instructions: 9000000 cycles: 4771065 heartbeat IPC: 1.88325 cumulative IPC: 1.88637 (Simulation time: 0 hr 5 min 15 sec) 
Heartbeat CPU 0 instructions: 10000001 cycles: 5301144 heartbeat IPC: 1.88651 cumulative IPC: 1.88639 (Simulation time: 0 hr 5 min 49 sec) 
Heartbeat CPU 0 instructions: 11000003 cycles: 5830209 heartbeat IPC: 1.89013 cumulative IPC: 1.88673 (Simulation time: 0 hr 6 min 27 sec) 
Heartbeat CPU 0 instructions: 12000000 cycles: 6358944 heartbeat IPC: 1.8913 cumulative IPC: 1.88711 (Simulation time: 0 hr 7 min 3 sec) 
Heartbeat CPU 0 instructions: 13000002 cycles: 6888796 heartbeat IPC: 1.88732 cumulative IPC: 1.88712 (Simulation time: 0 hr 7 min 37 sec) 
Heartbeat CPU 0 instructions: 14000000 cycles: 7418911 heartbeat IPC: 1.88638 cumulative IPC: 1.88707 (Simulation time: 0 hr 8 min 11 sec) 
Heartbeat CPU 0 instructions: 15000000 cycles: 7949308 heartbeat IPC: 1.88538 cumulative IPC: 1.88696 (Simulation time: 0 hr 8 min 45 sec) 
Heartbeat CPU 0 instructions: 16000000 cycles: 8480170 heartbeat IPC: 1.88373 cumulative IPC: 1.88675 (Simulation time: 0 hr 9 min 23 sec) 
Heartbeat CPU 0 instructions: 17000002 cycles: 9009799 heartbeat IPC: 1.88812 cumulative IPC: 1.88683 (Simulation time: 0 hr 9 min 57 sec) 
Heartbeat CPU 0 instructions: 18000003 cycles: 9539202 heartbeat IPC: 1.88892 cumulative IPC: 1.88695 (Simulation time: 0 hr 10 min 32 sec) 
Heartbeat CPU 0 instructions: 19000003 cycles: 10069723 heartbeat IPC: 1.88494 cumulative IPC: 1.88684 (Simulation time: 0 hr 11 min 10 sec) 
Heartbeat CPU 0 instructions: 20000000 cycles: 10599983 heartbeat IPC: 1.88586 cumulative IPC: 1.8868 (Simulation time: 0 hr 11 min 43 sec) 
Heartbeat CPU 0 instructions: 21000003 cycles: 11130111 heartbeat IPC: 1.88634 cumulative IPC: 1.88677 (Simulation time: 0 hr 12 min 18 sec) 
Heartbeat CPU 0 instructions: 22000001 cycles: 11661727 heartbeat IPC: 1.88105 cumulative IPC: 1.88651 (Simulation time: 0 hr 12 min 55 sec) 
Heartbeat CPU 0 instructions: 23000001 cycles: 12191868 heartbeat IPC: 1.88629 cumulative IPC: 1.8865 (Simulation time: 0 hr 13 min 30 sec) 
Heartbeat CPU 0 instructions: 24000000 cycles: 12722726 heartbeat IPC: 1.88374 cumulative IPC: 1.88639 (Simulation time: 0 hr 14 min 8 sec) 
Heartbeat CPU 0 instructions: 25000003 cycles: 13223529 heartbeat IPC: 1.9968 cumulative IPC: 1.89057 (Simulation time: 0 hr 14 min 45 sec) 
Heartbeat CPU 0 instructions: 26000002 cycles: 13727837 heartbeat IPC: 1.98291 cumulative IPC: 1.89396 (Simulation time: 0 hr 15 min 16 sec) 
Heartbeat CPU 0 instructions: 27000000 cycles: 14239854 heartbeat IPC: 1.95306 cumulative IPC: 1.89609 (Simulation time: 0 hr 15 min 49 sec) 
Heartbeat CPU 0 instructions: 28000000 cycles: 14763368 heartbeat IPC: 1.91017 cumulative IPC: 1.89659 (Simulation time: 0 hr 16 min 21 sec) 
Heartbeat CPU 0 instructions: 29000003 cycles: 15291273 heartbeat IPC: 1.89429 cumulative IPC: 1.89651 (Simulation time: 0 hr 16 min 53 sec) 
Heartbeat CPU 0 instructions: 30000000 cycles: 15814678 heartbeat IPC: 1.91056 cumulative IPC: 1.89697 (Simulation time: 0 hr 17 min 29 sec) 
Heartbeat CPU 0 instructions: 31000001 cycles: 16335303 heartbeat IPC: 1.92077 cumulative IPC: 1.89773 (Simulation time: 0 hr 18 min 1 sec) 
Heartbeat CPU 0 instructions: 32000000 cycles: 16862586 heartbeat IPC: 1.89651 cumulative IPC: 1.89769 (Simulation time: 0 hr 18 min 36 sec) 
Heartbeat CPU 0 instructions: 33000001 cycles: 17383052 heartbeat IPC: 1.92136 cumulative IPC: 1.8984 (Simulation time: 0 hr 19 min 8 sec) 
Heartbeat CPU 0 instructions: 34000001 cycles: 17905950 heartbeat IPC: 1.91242 cumulative IPC: 1.89881 (Simulation time: 0 hr 19 min 39 sec) 
Heartbeat CPU 0 instructions: 35000000 cycles: 18431476 heartbeat IPC: 1.90285 cumulative IPC: 1.89893 (Simulation time: 0 hr 20 min 12 sec) 
Heartbeat CPU 0 instructions: 36000000 cycles: 18958407 heartbeat IPC: 1.89778 cumulative IPC: 1.89889 (Simulation time: 0 hr 20 min 47 sec) 
Heartbeat CPU 0 instructions: 37000002 cycles: 19475852 heartbeat IPC: 1.93258 cumulative IPC: 1.89979 (Simulation time: 0 hr 21 min 21 sec) 
Heartbeat CPU 0 instructions: 38000002 cycles: 19995824 heartbeat IPC: 1.92318 cumulative IPC: 1.9004 (Simulation time: 0 hr 21 min 58 sec) 
Heartbeat CPU 0 instructions: 39000001 cycles: 20516182 heartbeat IPC: 1.92175 cumulative IPC: 1.90094 (Simulation time: 0 hr 22 min 31 sec) 
Heartbeat CPU 0 instructions: 40000000 cycles: 21035093 heartbeat IPC: 1.92711 cumulative IPC: 1.90158 (Simulation time: 0 hr 23 min 5 sec) 
Heartbeat CPU 0 instructions: 41000001 cycles: 21556443 heartbeat IPC: 1.9181 cumulative IPC: 1.90198 (Simulation time: 0 hr 23 min 36 sec) 
Heartbeat CPU 0 instructions: 42000002 cycles: 22070362 heartbeat IPC: 1.94583 cumulative IPC: 1.903 (Simulation time: 0 hr 24 min 10 sec) 
Heartbeat CPU 0 instructions: 43000001 cycles: 22583936 heartbeat IPC: 1.94714 cumulative IPC: 1.90401 (Simulation time: 0 hr 24 min 42 sec) 
Heartbeat CPU 0 instructions: 44000000 cycles: 23103872 heartbeat IPC: 1.92331 cumulative IPC: 1.90444 (Simulation time: 0 hr 25 min 14 sec) 
Heartbeat CPU 0 instructions: 45000001 cycles: 23620098 heartbeat IPC: 1.93714 cumulative IPC: 1.90516 (Simulation time: 0 hr 25 min 49 sec) 
Heartbeat CPU 0 instructions: 46000003 cycles: 24144454 heartbeat IPC: 1.90711 cumulative IPC: 1.9052 (Simulation time: 0 hr 26 min 23 sec) 
Heartbeat CPU 0 instructions: 47000000 cycles: 24668069 heartbeat IPC: 1.90979 cumulative IPC: 1.9053 (Simulation time: 0 hr 26 min 59 sec) 
Heartbeat CPU 0 instructions: 48000000 cycles: 25188414 heartbeat IPC: 1.9218 cumulative IPC: 1.90564 (Simulation time: 0 hr 27 min 32 sec) 
Heartbeat CPU 0 instructions: 49000003 cycles: 25714292 heartbeat IPC: 1.90159 cumulative IPC: 1.90556 (Simulation time: 0 hr 28 min 6 sec) 
Heartbeat CPU 0 instructions: 50000001 cycles: 26240889 heartbeat IPC: 1.89898 cumulative IPC: 1.90542 (Simulation time: 0 hr 28 min 42 sec) 

Warmup complete CPU 0 instructions: 50000001 cycles: 26240889 (Simulation time: 0 hr 28 min 42 sec) 

Heartbeat CPU 0 instructions: 51000003 cycles: 28178866 heartbeat IPC: 0.516003 cumulative IPC: 0.516003 (Simulation time: 0 hr 29 min 17 sec) 
Heartbeat CPU 0 instructions: 52000000 cycles: 30213364 heartbeat IPC: 0.49152 cumulative IPC: 0.503464 (Simulation time: 0 hr 29 min 53 sec) 
Heartbeat CPU 0 instructions: 53000001 cycles: 32202034 heartbeat IPC: 0.502849 cumulative IPC: 0.503259 (Simulation time: 0 hr 30 min 29 sec) 
Heartbeat CPU 0 instructions: 54000003 cycles: 34133631 heartbeat IPC: 0.517707 cumulative IPC: 0.506795 (Simulation time: 0 hr 31 min 9 sec) 
Heartbeat CPU 0 instructions: 55000000 cycles: 36052255 heartbeat IPC: 0.521205 cumulative IPC: 0.509613 (Simulation time: 0 hr 31 min 50 sec) 
Heartbeat CPU 0 instructions: 56000000 cycles: 37986815 heartbeat IPC: 0.516913 cumulative IPC: 0.510815 (Simulation time: 0 hr 32 min 29 sec) 
Heartbeat CPU 0 instructions: 57000000 cycles: 39894076 heartbeat IPC: 0.524312 cumulative IPC: 0.512701 (Simulation time: 0 hr 33 min 8 sec) 
Heartbeat CPU 0 instructions: 58000001 cycles: 41849468 heartbeat IPC: 0.511407 cumulative IPC: 0.512539 (Simulation time: 0 hr 33 min 49 sec) 
Heartbeat CPU 0 instructions: 59000003 cycles: 43808301 heartbeat IPC: 0.510509 cumulative IPC: 0.512312 (Simulation time: 0 hr 34 min 29 sec) 
Heartbeat CPU 0 instructions: 60000000 cycles: 45774694 heartbeat IPC: 0.508544 cumulative IPC: 0.511933 (Simulation time: 0 hr 35 min 11 sec) 
Heartbeat CPU 0 instructions: 61000002 cycles: 47750821 heartbeat IPC: 0.506041 cumulative IPC: 0.511392 (Simulation time: 0 hr 35 min 55 sec) 
Heartbeat CPU 0 instructions: 62000001 cycles: 49702408 heartbeat IPC: 0.512403 cumulative IPC: 0.511476 (Simulation time: 0 hr 36 min 40 sec) 
Heartbeat CPU 0 instructions: 63000001 cycles: 51728002 heartbeat IPC: 0.493682 cumulative IPC: 0.510062 (Simulation time: 0 hr 37 min 14 sec) 
Heartbeat CPU 0 instructions: 64000000 cycles: 53679678 heartbeat IPC: 0.51238 cumulative IPC: 0.510227 (Simulation time: 0 hr 37 min 53 sec) 
Heartbeat CPU 0 instructions: 65000000 cycles: 55622056 heartbeat IPC: 0.514833 cumulative IPC: 0.510531 (Simulation time: 0 hr 38 min 29 sec) 
Heartbeat CPU 0 instructions: 66000000 cycles: 57583879 heartbeat IPC: 0.50973 cumulative IPC: 0.510481 (Simulation time: 0 hr 39 min 11 sec) 
Heartbeat CPU 0 instructions: 67000003 cycles: 59543372 heartbeat IPC: 0.510338 cumulative IPC: 0.510473 (Simulation time: 0 hr 39 min 53 sec) 
Heartbeat CPU 0 instructions: 68000000 cycles: 61481496 heartbeat IPC: 0.515961 cumulative IPC: 0.510774 (Simulation time: 0 hr 40 min 32 sec) 
Heartbeat CPU 0 instructions: 69000000 cycles: 63438459 heartbeat IPC: 0.510996 cumulative IPC: 0.510786 (Simulation time: 0 hr 41 min 11 sec) 
Heartbeat CPU 0 instructions: 70000000 cycles: 65413729 heartbeat IPC: 0.50626 cumulative IPC: 0.510558 (Simulation time: 0 hr 41 min 47 sec) 
Heartbeat CPU 0 instructions: 71000001 cycles: 67388047 heartbeat IPC: 0.506505 cumulative IPC: 0.510363 (Simulation time: 0 hr 42 min 27 sec) 
Heartbeat CPU 0 instructions: 72000000 cycles: 69356839 heartbeat IPC: 0.507925 cumulative IPC: 0.510252 (Simulation time: 0 hr 43 min 4 sec) 
Heartbeat CPU 0 instructions: 73000000 cycles: 71313131 heartbeat IPC: 0.511171 cumulative IPC: 0.510292 (Simulation time: 0 hr 43 min 46 sec) 
Heartbeat CPU 0 instructions: 74000000 cycles: 73283906 heartbeat IPC: 0.507415 cumulative IPC: 0.510171 (Simulation time: 0 hr 44 min 27 sec) 
Heartbeat CPU 0 instructions: 75000001 cycles: 75212008 heartbeat IPC: 0.518645 cumulative IPC: 0.510505 (Simulation time: 0 hr 45 min 6 sec) 
Heartbeat CPU 0 instructions: 76000000 cycles: 77147782 heartbeat IPC: 0.516589 cumulative IPC: 0.510736 (Simulation time: 0 hr 45 min 43 sec) 
Heartbeat CPU 0 instructions: 77000001 cycles: 79196555 heartbeat IPC: 0.488098 cumulative IPC: 0.50986 (Simulation time: 0 hr 46 min 20 sec) 
Heartbeat CPU 0 instructions: 78000000 cycles: 81172130 heartbeat IPC: 0.506181 cumulative IPC: 0.509728 (Simulation time: 0 hr 46 min 56 sec) 
Heartbeat CPU 0 instructions: 79000003 cycles: 83235011 heartbeat IPC: 0.48476 cumulative IPC: 0.508824 (Simulation time: 0 hr 47 min 32 sec) 
Heartbeat CPU 0 instructions: 80000000 cycles: 85404681 heartbeat IPC: 0.460898 cumulative IPC: 0.507067 (Simulation time: 0 hr 48 min 11 sec) 
Heartbeat CPU 0 instructions: 81000003 cycles: 87558859 heartbeat IPC: 0.464216 cumulative IPC: 0.505561 (Simulation time: 0 hr 48 min 46 sec) 
Heartbeat CPU 0 instructions: 82000000 cycles: 89641900 heartbeat IPC: 0.480066 cumulative IPC: 0.504724 (Simulation time: 0 hr 49 min 23 sec) 
Heartbeat CPU 0 instructions: 83000000 cycles: 91648583 heartbeat IPC: 0.498335 cumulative IPC: 0.504528 (Simulation time: 0 hr 50 min 3 sec) 
Heartbeat CPU 0 instructions: 84000000 cycles: 93646878 heartbeat IPC: 0.500427 cumulative IPC: 0.504406 (Simulation time: 0 hr 50 min 40 sec) 
Heartbeat CPU 0 instructions: 85000001 cycles: 95626030 heartbeat IPC: 0.505267 cumulative IPC: 0.504431 (Simulation time: 0 hr 51 min 21 sec) 
Heartbeat CPU 0 instructions: 86000002 cycles: 97598135 heartbeat IPC: 0.507073 cumulative IPC: 0.504504 (Simulation time: 0 hr 51 min 59 sec) 
Heartbeat CPU 0 instructions: 87000000 cycles: 99614458 heartbeat IPC: 0.495951 cumulative IPC: 0.504269 (Simulation time: 0 hr 52 min 36 sec) 
Heartbeat CPU 0 instructions: 88000000 cycles: 101692703 heartbeat IPC: 0.481175 cumulative IPC: 0.503633 (Simulation time: 0 hr 53 min 15 sec) 
Heartbeat CPU 0 instructions: 89000003 cycles: 103694511 heartbeat IPC: 0.49955 cumulative IPC: 0.503527 (Simulation time: 0 hr 53 min 55 sec) 
Heartbeat CPU 0 instructions: 90000000 cycles: 105681494 heartbeat IPC: 0.503274 cumulative IPC: 0.503521 (Simulation time: 0 hr 54 min 30 sec) 
Heartbeat CPU 0 instructions: 91000000 cycles: 107683054 heartbeat IPC: 0.49961 cumulative IPC: 0.503425 (Simulation time: 0 hr 55 min 8 sec) 
Heartbeat CPU 0 instructions: 92000000 cycles: 109700798 heartbeat IPC: 0.495603 cumulative IPC: 0.503236 (Simulation time: 0 hr 55 min 49 sec) 
Heartbeat CPU 0 instructions: 93000003 cycles: 111667777 heartbeat IPC: 0.508395 cumulative IPC: 0.503354 (Simulation time: 0 hr 56 min 36 sec) 
Heartbeat CPU 0 instructions: 94000000 cycles: 113623871 heartbeat IPC: 0.511221 cumulative IPC: 0.503531 (Simulation time: 0 hr 57 min 19 sec) 
Heartbeat CPU 0 instructions: 95000000 cycles: 115600257 heartbeat IPC: 0.505974 cumulative IPC: 0.503585 (Simulation time: 0 hr 57 min 56 sec) 
Heartbeat CPU 0 instructions: 96000000 cycles: 117619975 heartbeat IPC: 0.495119 cumulative IPC: 0.503397 (Simulation time: 0 hr 58 min 32 sec) 
Heartbeat CPU 0 instructions: 97000000 cycles: 119630779 heartbeat IPC: 0.497313 cumulative IPC: 0.503266 (Simulation time: 0 hr 59 min 10 sec) 
Heartbeat CPU 0 instructions: 98000000 cycles: 121620173 heartbeat IPC: 0.502666 cumulative IPC: 0.503254 (Simulation time: 0 hr 59 min 49 sec) 
Heartbeat CPU 0 instructions: 99000000 cycles: 123690233 heartbeat IPC: 0.483078 cumulative IPC: 0.502825 (Simulation time: 1 hr 0 min 27 sec) 
Heartbeat CPU 0 instructions: 100000000 cycles: 125694091 heartbeat IPC: 0.499037 cumulative IPC: 0.502749 (Simulation time: 1 hr 1 min 5 sec) 
Heartbeat CPU 0 instructions: 101000000 cycles: 127750079 heartbeat IPC: 0.486384 cumulative IPC: 0.502418 (Simulation time: 1 hr 1 min 39 sec) 
Heartbeat CPU 0 instructions: 102000003 cycles: 129773046 heartbeat IPC: 0.494325 cumulative IPC: 0.502259 (Simulation time: 1 hr 2 min 16 sec) 
Heartbeat CPU 0 instructions: 103000000 cycles: 131738789 heartbeat IPC: 0.508712 cumulative IPC: 0.50238 (Simulation time: 1 hr 2 min 53 sec) 
Heartbeat CPU 0 instructions: 104000000 cycles: 133694219 heartbeat IPC: 0.511396 cumulative IPC: 0.502544 (Simulation time: 1 hr 3 min 33 sec) 
Heartbeat CPU 0 instructions: 105000002 cycles: 135646106 heartbeat IPC: 0.512326 cumulative IPC: 0.502718 (Simulation time: 1 hr 4 min 12 sec) 
Heartbeat CPU 0 instructions: 106000003 cycles: 137592268 heartbeat IPC: 0.513832 cumulative IPC: 0.502913 (Simulation time: 1 hr 4 min 52 sec) 
Heartbeat CPU 0 instructions: 107000000 cycles: 139554091 heartbeat IPC: 0.509728 cumulative IPC: 0.503031 (Simulation time: 1 hr 5 min 34 sec) 
Heartbeat CPU 0 instructions: 108000000 cycles: 141644519 heartbeat IPC: 0.478371 cumulative IPC: 0.502584 (Simulation time: 1 hr 6 min 7 sec) 
Heartbeat CPU 0 instructions: 109000003 cycles: 143712537 heartbeat IPC: 0.483556 cumulative IPC: 0.502249 (Simulation time: 1 hr 6 min 47 sec) 
Heartbeat CPU 0 instructions: 110000002 cycles: 145737711 heartbeat IPC: 0.493784 cumulative IPC: 0.502105 (Simulation time: 1 hr 7 min 24 sec) 
Heartbeat CPU 0 instructions: 111000002 cycles: 147755352 heartbeat IPC: 0.495628 cumulative IPC: 0.501998 (Simulation time: 1 hr 8 min 6 sec) 
Heartbeat CPU 0 instructions: 112000000 cycles: 149763636 heartbeat IPC: 0.497937 cumulative IPC: 0.501932 (Simulation time: 1 hr 8 min 39 sec) 
Heartbeat CPU 0 instructions: 113000000 cycles: 151758594 heartbeat IPC: 0.501264 cumulative IPC: 0.501921 (Simulation time: 1 hr 9 min 12 sec) 
Heartbeat CPU 0 instructions: 114000001 cycles: 153765668 heartbeat IPC: 0.498238 cumulative IPC: 0.501863 (Simulation time: 1 hr 9 min 48 sec) 
Heartbeat CPU 0 instructions: 115000000 cycles: 155772506 heartbeat IPC: 0.498296 cumulative IPC: 0.501808 (Simulation time: 1 hr 10 min 24 sec) 
Heartbeat CPU 0 instructions: 116000000 cycles: 157803392 heartbeat IPC: 0.492396 cumulative IPC: 0.501663 (Simulation time: 1 hr 10 min 57 sec) 
Heartbeat CPU 0 instructions: 117000000 cycles: 159868136 heartbeat IPC: 0.484322 cumulative IPC: 0.501395 (Simulation time: 1 hr 11 min 35 sec) 
Heartbeat CPU 0 instructions: 118000002 cycles: 161956517 heartbeat IPC: 0.478841 cumulative IPC: 0.501048 (Simulation time: 1 hr 12 min 11 sec) 
Heartbeat CPU 0 instructions: 119000001 cycles: 164025297 heartbeat IPC: 0.483376 cumulative IPC: 0.500782 (Simulation time: 1 hr 12 min 44 sec) 
Heartbeat CPU 0 instructions: 120000000 cycles: 166052136 heartbeat IPC: 0.493379 cumulative IPC: 0.500675 (Simulation time: 1 hr 13 min 17 sec) 
Heartbeat CPU 0 instructions: 121000000 cycles: 168133152 heartbeat IPC: 0.480534 cumulative IPC: 0.50038 (Simulation time: 1 hr 13 min 49 sec) 
Heartbeat CPU 0 instructions: 122000001 cycles: 170286516 heartbeat IPC: 0.46439 cumulative IPC: 0.499842 (Simulation time: 1 hr 14 min 19 sec) 
Heartbeat CPU 0 instructions: 123000000 cycles: 172367242 heartbeat IPC: 0.480601 cumulative IPC: 0.499568 (Simulation time: 1 hr 14 min 53 sec) 
Heartbeat CPU 0 instructions: 124000000 cycles: 174374954 heartbeat IPC: 0.498079 cumulative IPC: 0.499547 (Simulation time: 1 hr 15 min 23 sec) 
Heartbeat CPU 0 instructions: 125000001 cycles: 176361257 heartbeat IPC: 0.503448 cumulative IPC: 0.499599 (Simulation time: 1 hr 15 min 52 sec) 
Heartbeat CPU 0 instructions: 126000000 cycles: 178352523 heartbeat IPC: 0.502193 cumulative IPC: 0.499633 (Simulation time: 1 hr 16 min 20 sec) 
Heartbeat CPU 0 instructions: 127000001 cycles: 180349284 heartbeat IPC: 0.500812 cumulative IPC: 0.499648 (Simulation time: 1 hr 16 min 47 sec) 
Heartbeat CPU 0 instructions: 128000000 cycles: 182373465 heartbeat IPC: 0.494026 cumulative IPC: 0.499575 (Simulation time: 1 hr 17 min 13 sec) 
Heartbeat CPU 0 instructions: 129000000 cycles: 184428353 heartbeat IPC: 0.486645 cumulative IPC: 0.499407 (Simulation time: 1 hr 17 min 38 sec) 
Heartbeat CPU 0 instructions: 130000002 cycles: 186448861 heartbeat IPC: 0.494926 cumulative IPC: 0.499351 (Simulation time: 1 hr 18 min 3 sec) 
Heartbeat CPU 0 instructions: 131000001 cycles: 188426428 heartbeat IPC: 0.505671 cumulative IPC: 0.499428 (Simulation time: 1 hr 18 min 29 sec) 
Heartbeat CPU 0 instructions: 132000000 cycles: 190404943 heartbeat IPC: 0.505429 cumulative IPC: 0.4995 (Simulation time: 1 hr 18 min 53 sec) 
Heartbeat CPU 0 instructions: 133000001 cycles: 192396082 heartbeat IPC: 0.502226 cumulative IPC: 0.499533 (Simulation time: 1 hr 19 min 20 sec) 
Heartbeat CPU 0 instructions: 134000002 cycles: 194377941 heartbeat IPC: 0.504577 cumulative IPC: 0.499592 (Simulation time: 1 hr 19 min 45 sec) 
Heartbeat CPU 0 instructions: 135000003 cycles: 196373831 heartbeat IPC: 0.50103 cumulative IPC: 0.499609 (Simulation time: 1 hr 20 min 8 sec) 
Heartbeat CPU 0 instructions: 136000000 cycles: 198355978 heartbeat IPC: 0.504502 cumulative IPC: 0.499666 (Simulation time: 1 hr 20 min 31 sec) 
Heartbeat CPU 0 instructions: 137000000 cycles: 200323271 heartbeat IPC: 0.508313 cumulative IPC: 0.499763 (Simulation time: 1 hr 20 min 53 sec) 
Heartbeat CPU 0 instructions: 138000003 cycles: 202307602 heartbeat IPC: 0.50395 cumulative IPC: 0.499811 (Simulation time: 1 hr 21 min 14 sec) 
Heartbeat CPU 0 instructions: 139000000 cycles: 204315649 heartbeat IPC: 0.497995 cumulative IPC: 0.49979 (Simulation time: 1 hr 21 min 36 sec) 
Heartbeat CPU 0 instructions: 140000000 cycles: 206334302 heartbeat IPC: 0.49538 cumulative IPC: 0.499741 (Simulation time: 1 hr 21 min 58 sec) 
Heartbeat CPU 0 instructions: 141000002 cycles: 208317402 heartbeat IPC: 0.504262 cumulative IPC: 0.49979 (Simulation time: 1 hr 22 min 17 sec) 
Heartbeat CPU 0 instructions: 142000002 cycles: 210290527 heartbeat IPC: 0.50681 cumulative IPC: 0.499865 (Simulation time: 1 hr 22 min 38 sec) 
Heartbeat CPU 0 instructions: 143000002 cycles: 212278370 heartbeat IPC: 0.503058 cumulative IPC: 0.499899 (Simulation time: 1 hr 22 min 59 sec) 
Heartbeat CPU 0 instructions: 144000000 cycles: 214274915 heartbeat IPC: 0.500864 cumulative IPC: 0.49991 (Simulation time: 1 hr 23 min 19 sec) 
Heartbeat CPU 0 instructions: 145000001 cycles: 216345668 heartbeat IPC: 0.482917 cumulative IPC: 0.499724 (Simulation time: 1 hr 23 min 36 sec) 
Heartbeat CPU 0 instructions: 146000000 cycles: 218501473 heartbeat IPC: 0.463863 cumulative IPC: 0.499322 (Simulation time: 1 hr 23 min 53 sec) 
Heartbeat CPU 0 instructions: 147000000 cycles: 220585563 heartbeat IPC: 0.479826 cumulative IPC: 0.499113 (Simulation time: 1 hr 24 min 10 sec) 
Heartbeat CPU 0 instructions: 148000000 cycles: 222698065 heartbeat IPC: 0.473372 cumulative IPC: 0.498836 (Simulation time: 1 hr 24 min 27 sec) 
Heartbeat CPU 0 instructions: 149000000 cycles: 224782684 heartbeat IPC: 0.479704 cumulative IPC: 0.498636 (Simulation time: 1 hr 24 min 45 sec) 
Heartbeat CPU 0 instructions: 150000000 cycles: 226873232 heartbeat IPC: 0.478343 cumulative IPC: 0.498424 (Simulation time: 1 hr 25 min 2 sec) 
Finished CPU 0 instructions: 100000003 cycles: 200632344 cummulative IPC: 0.498424 (Simulation time: 1 hr 25 min 2 sec) 

ChampSim completed all CPUs

Region of Interest Statistics

CPU 0 cummulative IPC: 0.498424 instructions: 100000003 cycles: 200632344
LLC TOTAL     ACCESS:     476990  HIT:     266111  MISS:     210879
LLC LOAD      ACCESS:     104801  HIT:      55946  MISS:      48855
LLC RFO       ACCESS:      70517  HIT:      43333  MISS:      27184
LLC PREFETCH  ACCESS:     138014  HIT:      42721  MISS:      95293
LLC WRITEBACK ACCESS:     163658  HIT:     124111  MISS:      39547
