
*** ChampSim Multicore Out-of-Order Simulator ***

Warmup Instructions: 50000000
Simulation Instructions: 100000000
Configuration: 2
Number of CPUs: 1
LLC sets: 2048
LLC ways: 16
Off-chip DRAM Channels: 1 Width: 64-bit Data Rate: 1600 MT/s

CPU 0 runs /datasets/cs240c-wi22-a00-public/data/Assignment2-gz/sphinx3_2520B.trace.gz
CPU 0 L1D next line prefetcher
CPU 0 L2C IP-based stride prefetcher
config 2, num_core 1, llc_sets 2048
Heartbeat CPU 0 instructions: 1000003 cycles: 338965 heartbeat IPC: 2.95017 cumulative IPC: 2.95017 (Simulation time: 0 hr 0 min 30 sec) 
Heartbeat CPU 0 instructions: 2000000 cycles: 737242 heartbeat IPC: 2.51081 cumulative IPC: 2.71281 (Simulation time: 0 hr 1 min 0 sec) 
Heartbeat CPU 0 instructions: 3000003 cycles: 1185131 heartbeat IPC: 2.2327 cumulative IPC: 2.53137 (Simulation time: 0 hr 1 min 27 sec) 
Heartbeat CPU 0 instructions: 4000000 cycles: 1524172 heartbeat IPC: 2.94949 cumulative IPC: 2.62438 (Simulation time: 0 hr 1 min 56 sec) 
Heartbeat CPU 0 instructions: 5000001 cycles: 1902516 heartbeat IPC: 2.6431 cumulative IPC: 2.6281 (Simulation time: 0 hr 2 min 28 sec) 
Heartbeat CPU 0 instructions: 6000001 cycles: 2368065 heartbeat IPC: 2.148 cumulative IPC: 2.53371 (Simulation time: 0 hr 2 min 59 sec) 
Heartbeat CPU 0 instructions: 7000001 cycles: 2707005 heartbeat IPC: 2.95037 cumulative IPC: 2.58588 (Simulation time: 0 hr 3 min 28 sec) 
Heartbeat CPU 0 instructions: 8000000 cycles: 3056018 heartbeat IPC: 2.86522 cumulative IPC: 2.61779 (Simulation time: 0 hr 4 min 0 sec) 
Heartbeat CPU 0 instructions: 9000000 cycles: 3509591 heartbeat IPC: 2.20472 cumulative IPC: 2.5644 (Simulation time: 0 hr 4 min 37 sec) 
Heartbeat CPU 0 instructions: 10000000 cycles: 3859719 heartbeat IPC: 2.8561 cumulative IPC: 2.59086 (Simulation time: 0 hr 5 min 9 sec) 
Heartbeat CPU 0 instructions: 11000003 cycles: 4204498 heartbeat IPC: 2.90042 cumulative IPC: 2.61625 (Simulation time: 0 hr 5 min 42 sec) 
Heartbeat CPU 0 instructions: 12000000 cycles: 4649283 heartbeat IPC: 2.24827 cumulative IPC: 2.58104 (Simulation time: 0 hr 6 min 9 sec) 
Heartbeat CPU 0 instructions: 13000000 cycles: 5008873 heartbeat IPC: 2.78095 cumulative IPC: 2.59539 (Simulation time: 0 hr 6 min 41 sec) 
Heartbeat CPU 0 instructions: 14000002 cycles: 5351574 heartbeat IPC: 2.918 cumulative IPC: 2.61605 (Simulation time: 0 hr 7 min 9 sec) 
Heartbeat CPU 0 instructions: 15000003 cycles: 5791025 heartbeat IPC: 2.27557 cumulative IPC: 2.59022 (Simulation time: 0 hr 7 min 39 sec) 
Heartbeat CPU 0 instructions: 16000000 cycles: 6157884 heartbeat IPC: 2.72583 cumulative IPC: 2.5983 (Simulation time: 0 hr 8 min 10 sec) 
Heartbeat CPU 0 instructions: 17000000 cycles: 6499303 heartbeat IPC: 2.92895 cumulative IPC: 2.61567 (Simulation time: 0 hr 8 min 41 sec) 
Heartbeat CPU 0 instructions: 18000002 cycles: 6933684 heartbeat IPC: 2.30213 cumulative IPC: 2.59602 (Simulation time: 0 hr 9 min 15 sec) 
Heartbeat CPU 0 instructions: 19000000 cycles: 7305014 heartbeat IPC: 2.69302 cumulative IPC: 2.60095 (Simulation time: 0 hr 9 min 45 sec) 
Heartbeat CPU 0 instructions: 20000000 cycles: 7646202 heartbeat IPC: 2.93094 cumulative IPC: 2.61568 (Simulation time: 0 hr 10 min 16 sec) 
Heartbeat CPU 0 instructions: 21000001 cycles: 8090560 heartbeat IPC: 2.25044 cumulative IPC: 2.59562 (Simulation time: 0 hr 10 min 51 sec) 
Heartbeat CPU 0 instructions: 22000002 cycles: 8504697 heartbeat IPC: 2.41466 cumulative IPC: 2.58681 (Simulation time: 0 hr 11 min 27 sec) 
Heartbeat CPU 0 instructions: 23000001 cycles: 8943697 heartbeat IPC: 2.2779 cumulative IPC: 2.57164 (Simulation time: 0 hr 11 min 58 sec) 
Heartbeat CPU 0 instructions: 24000000 cycles: 9282725 heartbeat IPC: 2.94961 cumulative IPC: 2.58545 (Simulation time: 0 hr 12 min 27 sec) 
Heartbeat CPU 0 instructions: 25000003 cycles: 9669530 heartbeat IPC: 2.58529 cumulative IPC: 2.58544 (Simulation time: 0 hr 13 min 2 sec) 
Heartbeat CPU 0 instructions: 26000001 cycles: 10086383 heartbeat IPC: 2.39892 cumulative IPC: 2.57773 (Simulation time: 0 hr 13 min 35 sec) 
Heartbeat CPU 0 instructions: 27000003 cycles: 10425363 heartbeat IPC: 2.95003 cumulative IPC: 2.58984 (Simulation time: 0 hr 14 min 4 sec) 
Heartbeat CPU 0 instructions: 28000000 cycles: 10828701 heartbeat IPC: 2.4793 cumulative IPC: 2.58572 (Simulation time: 0 hr 14 min 33 sec) 
Heartbeat CPU 0 instructions: 29000002 cycles: 11229239 heartbeat IPC: 2.49665 cumulative IPC: 2.58254 (Simulation time: 0 hr 15 min 5 sec) 
Heartbeat CPU 0 instructions: 30000002 cycles: 11568178 heartbeat IPC: 2.95038 cumulative IPC: 2.59332 (Simulation time: 0 hr 15 min 34 sec) 
Heartbeat CPU 0 instructions: 31000000 cycles: 11989467 heartbeat IPC: 2.37366 cumulative IPC: 2.5856 (Simulation time: 0 hr 16 min 7 sec) 
Heartbeat CPU 0 instructions: 32000000 cycles: 12370819 heartbeat IPC: 2.62225 cumulative IPC: 2.58673 (Simulation time: 0 hr 16 min 39 sec) 
Heartbeat CPU 0 instructions: 33000002 cycles: 12711574 heartbeat IPC: 2.93467 cumulative IPC: 2.59606 (Simulation time: 0 hr 17 min 11 sec) 
Heartbeat CPU 0 instructions: 34000000 cycles: 13151377 heartbeat IPC: 2.27374 cumulative IPC: 2.58528 (Simulation time: 0 hr 17 min 41 sec) 
Heartbeat CPU 0 instructions: 35000001 cycles: 13512657 heartbeat IPC: 2.76794 cumulative IPC: 2.59016 (Simulation time: 0 hr 18 min 8 sec) 
Heartbeat CPU 0 instructions: 36000000 cycles: 13854994 heartbeat IPC: 2.9211 cumulative IPC: 2.59834 (Simulation time: 0 hr 18 min 33 sec) 
Heartbeat CPU 0 instructions: 37000000 cycles: 14314547 heartbeat IPC: 2.17603 cumulative IPC: 2.58478 (Simulation time: 0 hr 19 min 1 sec) 
Heartbeat CPU 0 instructions: 38000000 cycles: 14654862 heartbeat IPC: 2.93845 cumulative IPC: 2.593 (Simulation time: 0 hr 19 min 29 sec) 
Heartbeat CPU 0 instructions: 39000003 cycles: 15001204 heartbeat IPC: 2.88733 cumulative IPC: 2.59979 (Simulation time: 0 hr 19 min 57 sec) 
Heartbeat CPU 0 instructions: 40000000 cycles: 15460003 heartbeat IPC: 2.1796 cumulative IPC: 2.58732 (Simulation time: 0 hr 20 min 24 sec) 
Heartbeat CPU 0 instructions: 41000001 cycles: 15799039 heartbeat IPC: 2.94954 cumulative IPC: 2.59509 (Simulation time: 0 hr 20 min 50 sec) 
Heartbeat CPU 0 instructions: 42000003 cycles: 16147003 heartbeat IPC: 2.87387 cumulative IPC: 2.6011 (Simulation time: 0 hr 21 min 21 sec) 
Heartbeat CPU 0 instructions: 43000001 cycles: 16603230 heartbeat IPC: 2.19189 cumulative IPC: 2.58986 (Simulation time: 0 hr 21 min 54 sec) 
Heartbeat CPU 0 instructions: 44000000 cycles: 16942105 heartbeat IPC: 2.95094 cumulative IPC: 2.59708 (Simulation time: 0 hr 22 min 20 sec) 
Heartbeat CPU 0 instructions: 45000001 cycles: 17289206 heartbeat IPC: 2.88101 cumulative IPC: 2.60278 (Simulation time: 0 hr 22 min 47 sec) 
Heartbeat CPU 0 instructions: 46000000 cycles: 17746891 heartbeat IPC: 2.18491 cumulative IPC: 2.592 (Simulation time: 0 hr 23 min 15 sec) 
Heartbeat CPU 0 instructions: 47000003 cycles: 18085877 heartbeat IPC: 2.94998 cumulative IPC: 2.59871 (Simulation time: 0 hr 23 min 42 sec) 
Heartbeat CPU 0 instructions: 48000000 cycles: 18434415 heartbeat IPC: 2.86912 cumulative IPC: 2.60383 (Simulation time: 0 hr 24 min 8 sec) 
Heartbeat CPU 0 instructions: 49000002 cycles: 18889159 heartbeat IPC: 2.19904 cumulative IPC: 2.59408 (Simulation time: 0 hr 24 min 33 sec) 
Heartbeat CPU 0 instructions: 50000001 cycles: 19228143 heartbeat IPC: 2.94999 cumulative IPC: 2.60036 (Simulation time: 0 hr 24 min 59 sec) 

Warmup complete CPU 0 instructions: 50000001 cycles: 19228143 (Simulation time: 0 hr 24 min 59 sec) 

Heartbeat CPU 0 instructions: 51000001 cycles: 19955669 heartbeat IPC: 1.37452 cumulative IPC: 1.37452 (Simulation time: 0 hr 25 min 30 sec) 
Heartbeat CPU 0 instructions: 52000000 cycles: 20787728 heartbeat IPC: 1.20184 cumulative IPC: 1.28239 (Simulation time: 0 hr 26 min 11 sec) 
Heartbeat CPU 0 instructions: 53000003 cycles: 21538852 heartbeat IPC: 1.33134 cumulative IPC: 1.2983 (Simulation time: 0 hr 26 min 43 sec) 
Heartbeat CPU 0 instructions: 54000001 cycles: 22253426 heartbeat IPC: 1.39943 cumulative IPC: 1.32219 (Simulation time: 0 hr 27 min 19 sec) 
Heartbeat CPU 0 instructions: 55000000 cycles: 23059334 heartbeat IPC: 1.24084 cumulative IPC: 1.30508 (Simulation time: 0 hr 27 min 47 sec) 
Heartbeat CPU 0 instructions: 56000000 cycles: 23783807 heartbeat IPC: 1.38031 cumulative IPC: 1.31704 (Simulation time: 0 hr 28 min 18 sec) 
Heartbeat CPU 0 instructions: 57000000 cycles: 24615710 heartbeat IPC: 1.20206 cumulative IPC: 1.29929 (Simulation time: 0 hr 28 min 52 sec) 
Heartbeat CPU 0 instructions: 58000002 cycles: 25746289 heartbeat IPC: 0.884504 cumulative IPC: 1.22734 (Simulation time: 0 hr 29 min 23 sec) 
Heartbeat CPU 0 instructions: 59000001 cycles: 26595036 heartbeat IPC: 1.17821 cumulative IPC: 1.22168 (Simulation time: 0 hr 29 min 53 sec) 
Heartbeat CPU 0 instructions: 60000000 cycles: 27378178 heartbeat IPC: 1.27691 cumulative IPC: 1.22699 (Simulation time: 0 hr 30 min 25 sec) 
Heartbeat CPU 0 instructions: 61000001 cycles: 28067753 heartbeat IPC: 1.45017 cumulative IPC: 1.2444 (Simulation time: 0 hr 30 min 57 sec) 
Heartbeat CPU 0 instructions: 62000000 cycles: 28895840 heartbeat IPC: 1.2076 cumulative IPC: 1.24125 (Simulation time: 0 hr 31 min 29 sec) 
Heartbeat CPU 0 instructions: 63000002 cycles: 29646942 heartbeat IPC: 1.33138 cumulative IPC: 1.24774 (Simulation time: 0 hr 32 min 0 sec) 
Heartbeat CPU 0 instructions: 64000000 cycles: 30367246 heartbeat IPC: 1.3883 cumulative IPC: 1.25683 (Simulation time: 0 hr 32 min 33 sec) 
Heartbeat CPU 0 instructions: 65000003 cycles: 31181212 heartbeat IPC: 1.22856 cumulative IPC: 1.25491 (Simulation time: 0 hr 33 min 2 sec) 
Heartbeat CPU 0 instructions: 66000003 cycles: 31909841 heartbeat IPC: 1.37244 cumulative IPC: 1.26166 (Simulation time: 0 hr 33 min 32 sec) 
Heartbeat CPU 0 instructions: 67000003 cycles: 32679230 heartbeat IPC: 1.29973 cumulative IPC: 1.26384 (Simulation time: 0 hr 34 min 10 sec) 
Heartbeat CPU 0 instructions: 68000000 cycles: 33493336 heartbeat IPC: 1.22834 cumulative IPC: 1.26181 (Simulation time: 0 hr 34 min 45 sec) 
Heartbeat CPU 0 instructions: 69000003 cycles: 34223375 heartbeat IPC: 1.36979 cumulative IPC: 1.26707 (Simulation time: 0 hr 35 min 21 sec) 
Heartbeat CPU 0 instructions: 70000000 cycles: 34991647 heartbeat IPC: 1.30162 cumulative IPC: 1.26875 (Simulation time: 0 hr 35 min 53 sec) 
Heartbeat CPU 0 instructions: 71000002 cycles: 35812728 heartbeat IPC: 1.21791 cumulative IPC: 1.26624 (Simulation time: 0 hr 36 min 23 sec) 
Heartbeat CPU 0 instructions: 72000000 cycles: 36537411 heartbeat IPC: 1.37991 cumulative IPC: 1.271 (Simulation time: 0 hr 36 min 51 sec) 
Heartbeat CPU 0 instructions: 73000003 cycles: 37298250 heartbeat IPC: 1.31434 cumulative IPC: 1.27282 (Simulation time: 0 hr 37 min 20 sec) 
Heartbeat CPU 0 instructions: 74000003 cycles: 38110453 heartbeat IPC: 1.23122 cumulative IPC: 1.27103 (Simulation time: 0 hr 37 min 49 sec) 
Heartbeat CPU 0 instructions: 75000002 cycles: 38818452 heartbeat IPC: 1.41243 cumulative IPC: 1.27614 (Simulation time: 0 hr 38 min 21 sec) 
Heartbeat CPU 0 instructions: 76000000 cycles: 39571679 heartbeat IPC: 1.32762 cumulative IPC: 1.27805 (Simulation time: 0 hr 38 min 48 sec) 
Heartbeat CPU 0 instructions: 77000003 cycles: 40404234 heartbeat IPC: 1.20113 cumulative IPC: 1.27502 (Simulation time: 0 hr 39 min 19 sec) 
Heartbeat CPU 0 instructions: 78000000 cycles: 41095277 heartbeat IPC: 1.44708 cumulative IPC: 1.28046 (Simulation time: 0 hr 39 min 49 sec) 
Heartbeat CPU 0 instructions: 79000003 cycles: 41863025 heartbeat IPC: 1.30251 cumulative IPC: 1.28121 (Simulation time: 0 hr 40 min 20 sec) 
Heartbeat CPU 0 instructions: 80000000 cycles: 42683076 heartbeat IPC: 1.21943 cumulative IPC: 1.27905 (Simulation time: 0 hr 40 min 50 sec) 
Heartbeat CPU 0 instructions: 81000001 cycles: 43371535 heartbeat IPC: 1.45252 cumulative IPC: 1.284 (Simulation time: 0 hr 41 min 22 sec) 
Heartbeat CPU 0 instructions: 82000002 cycles: 44165156 heartbeat IPC: 1.26005 cumulative IPC: 1.28323 (Simulation time: 0 hr 41 min 52 sec) 
Heartbeat CPU 0 instructions: 83000003 cycles: 44999406 heartbeat IPC: 1.19868 cumulative IPC: 1.2805 (Simulation time: 0 hr 42 min 24 sec) 
Heartbeat CPU 0 instructions: 84000000 cycles: 45672634 heartbeat IPC: 1.48538 cumulative IPC: 1.28571 (Simulation time: 0 hr 42 min 55 sec) 
Heartbeat CPU 0 instructions: 85000001 cycles: 46475726 heartbeat IPC: 1.24519 cumulative IPC: 1.28452 (Simulation time: 0 hr 43 min 31 sec) 
Heartbeat CPU 0 instructions: 86000000 cycles: 47276956 heartbeat IPC: 1.24808 cumulative IPC: 1.28348 (Simulation time: 0 hr 44 min 5 sec) 
Heartbeat CPU 0 instructions: 87000003 cycles: 47929119 heartbeat IPC: 1.53336 cumulative IPC: 1.28915 (Simulation time: 0 hr 44 min 32 sec) 
Heartbeat CPU 0 instructions: 88000000 cycles: 48739565 heartbeat IPC: 1.23388 cumulative IPC: 1.28764 (Simulation time: 0 hr 45 min 1 sec) 
Heartbeat CPU 0 instructions: 89000002 cycles: 49523352 heartbeat IPC: 1.27586 cumulative IPC: 1.28733 (Simulation time: 0 hr 45 min 32 sec) 
Heartbeat CPU 0 instructions: 90000001 cycles: 50167441 heartbeat IPC: 1.55258 cumulative IPC: 1.29285 (Simulation time: 0 hr 46 min 1 sec) 
Heartbeat CPU 0 instructions: 91000001 cycles: 50984595 heartbeat IPC: 1.22376 cumulative IPC: 1.29108 (Simulation time: 0 hr 46 min 32 sec) 
Heartbeat CPU 0 instructions: 92000000 cycles: 51768860 heartbeat IPC: 1.27508 cumulative IPC: 1.29069 (Simulation time: 0 hr 47 min 0 sec) 
Heartbeat CPU 0 instructions: 93000002 cycles: 52421091 heartbeat IPC: 1.5332 cumulative IPC: 1.29546 (Simulation time: 0 hr 47 min 28 sec) 
Heartbeat CPU 0 instructions: 94000000 cycles: 53264087 heartbeat IPC: 1.18624 cumulative IPC: 1.29275 (Simulation time: 0 hr 48 min 1 sec) 
Heartbeat CPU 0 instructions: 95000000 cycles: 54039874 heartbeat IPC: 1.28901 cumulative IPC: 1.29267 (Simulation time: 0 hr 48 min 31 sec) 
Heartbeat CPU 0 instructions: 96000000 cycles: 54721294 heartbeat IPC: 1.46752 cumulative IPC: 1.29602 (Simulation time: 0 hr 49 min 1 sec) 
Heartbeat CPU 0 instructions: 97000002 cycles: 55899959 heartbeat IPC: 0.848419 cumulative IPC: 1.28164 (Simulation time: 0 hr 49 min 31 sec) 
Heartbeat CPU 0 instructions: 98000003 cycles: 56863137 heartbeat IPC: 1.03823 cumulative IPC: 1.27541 (Simulation time: 0 hr 50 min 2 sec) 
Heartbeat CPU 0 instructions: 99000001 cycles: 57680288 heartbeat IPC: 1.22376 cumulative IPC: 1.27431 (Simulation time: 0 hr 50 min 30 sec) 
Heartbeat CPU 0 instructions: 100000000 cycles: 58336946 heartbeat IPC: 1.52286 cumulative IPC: 1.27848 (Simulation time: 0 hr 50 min 58 sec) 
Heartbeat CPU 0 instructions: 101000001 cycles: 59689575 heartbeat IPC: 0.739302 cumulative IPC: 1.26046 (Simulation time: 0 hr 51 min 27 sec) 
Heartbeat CPU 0 instructions: 102000002 cycles: 60534947 heartbeat IPC: 1.18291 cumulative IPC: 1.25887 (Simulation time: 0 hr 51 min 57 sec) 
Heartbeat CPU 0 instructions: 103000001 cycles: 61274718 heartbeat IPC: 1.35177 cumulative IPC: 1.26051 (Simulation time: 0 hr 52 min 24 sec) 
Heartbeat CPU 0 instructions: 104000000 cycles: 62441030 heartbeat IPC: 0.857403 cumulative IPC: 1.24963 (Simulation time: 0 hr 52 min 55 sec) 
Heartbeat CPU 0 instructions: 105000002 cycles: 63295590 heartbeat IPC: 1.1702 cumulative IPC: 1.24809 (Simulation time: 0 hr 53 min 26 sec) 
Heartbeat CPU 0 instructions: 106000000 cycles: 64073692 heartbeat IPC: 1.28518 cumulative IPC: 1.24873 (Simulation time: 0 hr 53 min 55 sec) 
Heartbeat CPU 0 instructions: 107000000 cycles: 65064902 heartbeat IPC: 1.00887 cumulative IPC: 1.24354 (Simulation time: 0 hr 54 min 30 sec) 
Heartbeat CPU 0 instructions: 108000000 cycles: 66063276 heartbeat IPC: 1.00163 cumulative IPC: 1.23839 (Simulation time: 0 hr 55 min 0 sec) 
Heartbeat CPU 0 instructions: 109000003 cycles: 66870717 heartbeat IPC: 1.23848 cumulative IPC: 1.23839 (Simulation time: 0 hr 55 min 30 sec) 
Heartbeat CPU 0 instructions: 110000000 cycles: 67646555 heartbeat IPC: 1.28893 cumulative IPC: 1.2392 (Simulation time: 0 hr 56 min 4 sec) 
Heartbeat CPU 0 instructions: 111000001 cycles: 68807402 heartbeat IPC: 0.861441 cumulative IPC: 1.23035 (Simulation time: 0 hr 56 min 35 sec) 
Heartbeat CPU 0 instructions: 112000000 cycles: 69654082 heartbeat IPC: 1.18108 cumulative IPC: 1.22953 (Simulation time: 0 hr 57 min 10 sec) 
Heartbeat CPU 0 instructions: 113000000 cycles: 70412474 heartbeat IPC: 1.31858 cumulative IPC: 1.23085 (Simulation time: 0 hr 57 min 40 sec) 
Heartbeat CPU 0 instructions: 114000000 cycles: 71596968 heartbeat IPC: 0.844242 cumulative IPC: 1.2221 (Simulation time: 0 hr 58 min 12 sec) 
Heartbeat CPU 0 instructions: 115000000 cycles: 72445427 heartbeat IPC: 1.17861 cumulative IPC: 1.22141 (Simulation time: 0 hr 58 min 45 sec) 
Heartbeat CPU 0 instructions: 116000000 cycles: 73225857 heartbeat IPC: 1.28134 cumulative IPC: 1.22227 (Simulation time: 0 hr 59 min 17 sec) 
Heartbeat CPU 0 instructions: 117000001 cycles: 74236772 heartbeat IPC: 0.989204 cumulative IPC: 1.21799 (Simulation time: 0 hr 59 min 49 sec) 
Heartbeat CPU 0 instructions: 118000001 cycles: 75235361 heartbeat IPC: 1.00141 cumulative IPC: 1.21413 (Simulation time: 1 hr 0 min 19 sec) 
Heartbeat CPU 0 instructions: 119000001 cycles: 76043317 heartbeat IPC: 1.23769 cumulative IPC: 1.21446 (Simulation time: 1 hr 0 min 48 sec) 
Heartbeat CPU 0 instructions: 120000000 cycles: 76852225 heartbeat IPC: 1.23623 cumulative IPC: 1.21477 (Simulation time: 1 hr 1 min 20 sec) 
Heartbeat CPU 0 instructions: 121000003 cycles: 78016568 heartbeat IPC: 0.858856 cumulative IPC: 1.20772 (Simulation time: 1 hr 1 min 52 sec) 
Heartbeat CPU 0 instructions: 122000000 cycles: 78859822 heartbeat IPC: 1.18588 cumulative IPC: 1.20741 (Simulation time: 1 hr 2 min 24 sec) 
Heartbeat CPU 0 instructions: 123000003 cycles: 79629768 heartbeat IPC: 1.2988 cumulative IPC: 1.20858 (Simulation time: 1 hr 2 min 54 sec) 
Heartbeat CPU 0 instructions: 124000000 cycles: 80800851 heartbeat IPC: 0.853908 cumulative IPC: 1.20183 (Simulation time: 1 hr 3 min 24 sec) 
Heartbeat CPU 0 instructions: 125000000 cycles: 81694508 heartbeat IPC: 1.119 cumulative IPC: 1.20065 (Simulation time: 1 hr 3 min 53 sec) 
Heartbeat CPU 0 instructions: 126000001 cycles: 82479730 heartbeat IPC: 1.27353 cumulative IPC: 1.20155 (Simulation time: 1 hr 4 min 25 sec) 
Heartbeat CPU 0 instructions: 127000000 cycles: 83457694 heartbeat IPC: 1.02253 cumulative IPC: 1.19883 (Simulation time: 1 hr 4 min 56 sec) 
Heartbeat CPU 0 instructions: 128000000 cycles: 84518528 heartbeat IPC: 0.942655 cumulative IPC: 1.19466 (Simulation time: 1 hr 5 min 27 sec) 
Heartbeat CPU 0 instructions: 129000000 cycles: 85323873 heartbeat IPC: 1.2417 cumulative IPC: 1.19524 (Simulation time: 1 hr 5 min 57 sec) 
Heartbeat CPU 0 instructions: 130000000 cycles: 86062298 heartbeat IPC: 1.35423 cumulative IPC: 1.19699 (Simulation time: 1 hr 6 min 26 sec) 
Heartbeat CPU 0 instructions: 131000002 cycles: 87305858 heartbeat IPC: 0.804145 cumulative IPC: 1.18982 (Simulation time: 1 hr 6 min 56 sec) 
Heartbeat CPU 0 instructions: 132000000 cycles: 88147616 heartbeat IPC: 1.18799 cumulative IPC: 1.18979 (Simulation time: 1 hr 7 min 25 sec) 
Heartbeat CPU 0 instructions: 133000000 cycles: 88926865 heartbeat IPC: 1.28329 cumulative IPC: 1.19084 (Simulation time: 1 hr 7 min 59 sec) 
Heartbeat CPU 0 instructions: 134000001 cycles: 90056703 heartbeat IPC: 0.885083 cumulative IPC: 1.18596 (Simulation time: 1 hr 8 min 27 sec) 
Heartbeat CPU 0 instructions: 135000002 cycles: 90973494 heartbeat IPC: 1.09076 cumulative IPC: 1.18475 (Simulation time: 1 hr 8 min 58 sec) 
Heartbeat CPU 0 instructions: 136000000 cycles: 91767107 heartbeat IPC: 1.26006 cumulative IPC: 1.18557 (Simulation time: 1 hr 9 min 25 sec) 
Heartbeat CPU 0 instructions: 137000002 cycles: 92650539 heartbeat IPC: 1.13195 cumulative IPC: 1.18492 (Simulation time: 1 hr 9 min 52 sec) 
Heartbeat CPU 0 instructions: 138000000 cycles: 93962240 heartbeat IPC: 0.762367 cumulative IPC: 1.17751 (Simulation time: 1 hr 10 min 24 sec) 
Heartbeat CPU 0 instructions: 139000000 cycles: 95054972 heartbeat IPC: 0.915137 cumulative IPC: 1.17373 (Simulation time: 1 hr 10 min 57 sec) 
Heartbeat CPU 0 instructions: 140000000 cycles: 95886540 heartbeat IPC: 1.20255 cumulative IPC: 1.17404 (Simulation time: 1 hr 11 min 24 sec) 
Heartbeat CPU 0 instructions: 141000003 cycles: 96670046 heartbeat IPC: 1.27632 cumulative IPC: 1.17507 (Simulation time: 1 hr 11 min 52 sec) 
Heartbeat CPU 0 instructions: 142000000 cycles: 97756259 heartbeat IPC: 0.920627 cumulative IPC: 1.17155 (Simulation time: 1 hr 12 min 19 sec) 
Heartbeat CPU 0 instructions: 143000003 cycles: 98722652 heartbeat IPC: 1.03478 cumulative IPC: 1.16989 (Simulation time: 1 hr 12 min 48 sec) 
Heartbeat CPU 0 instructions: 144000000 cycles: 99515999 heartbeat IPC: 1.26048 cumulative IPC: 1.17079 (Simulation time: 1 hr 13 min 15 sec) 
Heartbeat CPU 0 instructions: 145000000 cycles: 100354827 heartbeat IPC: 1.19214 cumulative IPC: 1.17101 (Simulation time: 1 hr 13 min 43 sec) 
Heartbeat CPU 0 instructions: 146000000 cycles: 101504242 heartbeat IPC: 0.870008 cumulative IPC: 1.1668 (Simulation time: 1 hr 14 min 14 sec) 
Heartbeat CPU 0 instructions: 147000000 cycles: 102334061 heartbeat IPC: 1.20508 cumulative IPC: 1.16719 (Simulation time: 1 hr 14 min 41 sec) 
Heartbeat CPU 0 instructions: 148000000 cycles: 103093436 heartbeat IPC: 1.31687 cumulative IPC: 1.16854 (Simulation time: 1 hr 15 min 7 sec) 
Heartbeat CPU 0 instructions: 149000003 cycles: 104330229 heartbeat IPC: 0.808545 cumulative IPC: 1.16331 (Simulation time: 1 hr 15 min 32 sec) 
Heartbeat CPU 0 instructions: 150000001 cycles: 105187970 heartbeat IPC: 1.16585 cumulative IPC: 1.16333 (Simulation time: 1 hr 15 min 55 sec) 
Finished CPU 0 instructions: 100000000 cycles: 85959827 cummulative IPC: 1.16333 (Simulation time: 1 hr 15 min 55 sec) 

ChampSim completed all CPUs

Region of Interest Statistics

CPU 0 cummulative IPC: 1.16333 instructions: 100000000 cycles: 85959827
LLC TOTAL     ACCESS:    1520586  HIT:     852456  MISS:     668130
LLC LOAD      ACCESS:     160693  HIT:     142142  MISS:      18551
LLC RFO       ACCESS:     118650  HIT:     117716  MISS:        934
LLC PREFETCH  ACCESS:    1108934  HIT:     460580  MISS:     648354
LLC WRITEBACK ACCESS:     132309  HIT:     132018  MISS:        291
