
*** ChampSim Multicore Out-of-Order Simulator ***

Warmup Instructions: 50000000
Simulation Instructions: 100000000
Configuration: 2
Number of CPUs: 1
LLC sets: 2048
LLC ways: 16
Off-chip DRAM Channels: 1 Width: 64-bit Data Rate: 1600 MT/s

CPU 0 runs /datasets/cs240c-wi22-a00-public/data/Assignment2-gz/bzip2_281B.trace.gz
CPU 0 L1D next line prefetcher
CPU 0 L2C IP-based stride prefetcher
config 2, num_core 1, llc_sets 2048
Heartbeat CPU 0 instructions: 1000000 cycles: 445873 heartbeat IPC: 2.24279 cumulative IPC: 2.24279 (Simulation time: 0 hr 0 min 33 sec) 
Heartbeat CPU 0 instructions: 2000003 cycles: 900170 heartbeat IPC: 2.20121 cumulative IPC: 2.22181 (Simulation time: 0 hr 1 min 5 sec) 
Heartbeat CPU 0 instructions: 3000002 cycles: 1314864 heartbeat IPC: 2.41141 cumulative IPC: 2.28161 (Simulation time: 0 hr 1 min 39 sec) 
Heartbeat CPU 0 instructions: 4000000 cycles: 1753354 heartbeat IPC: 2.28055 cumulative IPC: 2.28134 (Simulation time: 0 hr 2 min 13 sec) 
Heartbeat CPU 0 instructions: 5000002 cycles: 2175341 heartbeat IPC: 2.36975 cumulative IPC: 2.29849 (Simulation time: 0 hr 2 min 49 sec) 
Heartbeat CPU 0 instructions: 6000000 cycles: 2665998 heartbeat IPC: 2.03808 cumulative IPC: 2.25056 (Simulation time: 0 hr 3 min 28 sec) 
Heartbeat CPU 0 instructions: 7000001 cycles: 3193293 heartbeat IPC: 1.89647 cumulative IPC: 2.19209 (Simulation time: 0 hr 4 min 5 sec) 
Heartbeat CPU 0 instructions: 8000000 cycles: 3725910 heartbeat IPC: 1.87752 cumulative IPC: 2.14713 (Simulation time: 0 hr 4 min 43 sec) 
Heartbeat CPU 0 instructions: 9000000 cycles: 4232349 heartbeat IPC: 1.97457 cumulative IPC: 2.12648 (Simulation time: 0 hr 5 min 17 sec) 
Heartbeat CPU 0 instructions: 10000002 cycles: 4685301 heartbeat IPC: 2.20774 cumulative IPC: 2.13434 (Simulation time: 0 hr 5 min 50 sec) 
Heartbeat CPU 0 instructions: 11000000 cycles: 5132733 heartbeat IPC: 2.23497 cumulative IPC: 2.14311 (Simulation time: 0 hr 6 min 24 sec) 
Heartbeat CPU 0 instructions: 12000000 cycles: 5613790 heartbeat IPC: 2.07876 cumulative IPC: 2.13759 (Simulation time: 0 hr 7 min 1 sec) 
Heartbeat CPU 0 instructions: 13000000 cycles: 6025246 heartbeat IPC: 2.43039 cumulative IPC: 2.15759 (Simulation time: 0 hr 7 min 32 sec) 
Heartbeat CPU 0 instructions: 14000003 cycles: 6483641 heartbeat IPC: 2.18153 cumulative IPC: 2.15928 (Simulation time: 0 hr 8 min 4 sec) 
Heartbeat CPU 0 instructions: 15000003 cycles: 6943889 heartbeat IPC: 2.17274 cumulative IPC: 2.16017 (Simulation time: 0 hr 8 min 35 sec) 
Heartbeat CPU 0 instructions: 16000000 cycles: 7339746 heartbeat IPC: 2.52616 cumulative IPC: 2.17991 (Simulation time: 0 hr 9 min 6 sec) 
Heartbeat CPU 0 instructions: 17000000 cycles: 7728908 heartbeat IPC: 2.56962 cumulative IPC: 2.19953 (Simulation time: 0 hr 9 min 37 sec) 
Heartbeat CPU 0 instructions: 18000002 cycles: 8184683 heartbeat IPC: 2.19407 cumulative IPC: 2.19923 (Simulation time: 0 hr 10 min 13 sec) 
Heartbeat CPU 0 instructions: 19000000 cycles: 8630619 heartbeat IPC: 2.24247 cumulative IPC: 2.20146 (Simulation time: 0 hr 10 min 42 sec) 
Heartbeat CPU 0 instructions: 20000000 cycles: 9075701 heartbeat IPC: 2.24678 cumulative IPC: 2.20369 (Simulation time: 0 hr 11 min 18 sec) 
Heartbeat CPU 0 instructions: 21000000 cycles: 9462791 heartbeat IPC: 2.58338 cumulative IPC: 2.21922 (Simulation time: 0 hr 11 min 49 sec) 
Heartbeat CPU 0 instructions: 22000003 cycles: 9838530 heartbeat IPC: 2.66143 cumulative IPC: 2.23611 (Simulation time: 0 hr 12 min 19 sec) 
Heartbeat CPU 0 instructions: 23000001 cycles: 10291487 heartbeat IPC: 2.20771 cumulative IPC: 2.23486 (Simulation time: 0 hr 12 min 53 sec) 
Heartbeat CPU 0 instructions: 24000000 cycles: 10745969 heartbeat IPC: 2.2003 cumulative IPC: 2.2334 (Simulation time: 0 hr 13 min 30 sec) 
Heartbeat CPU 0 instructions: 25000001 cycles: 11089518 heartbeat IPC: 2.9108 cumulative IPC: 2.25438 (Simulation time: 0 hr 14 min 2 sec) 
Heartbeat CPU 0 instructions: 26000003 cycles: 11527028 heartbeat IPC: 2.28567 cumulative IPC: 2.25557 (Simulation time: 0 hr 14 min 37 sec) 
Heartbeat CPU 0 instructions: 27000003 cycles: 11999510 heartbeat IPC: 2.11648 cumulative IPC: 2.25009 (Simulation time: 0 hr 15 min 8 sec) 
Heartbeat CPU 0 instructions: 28000000 cycles: 12326018 heartbeat IPC: 3.0627 cumulative IPC: 2.27162 (Simulation time: 0 hr 15 min 36 sec) 
Heartbeat CPU 0 instructions: 29000001 cycles: 12622895 heartbeat IPC: 3.3684 cumulative IPC: 2.29741 (Simulation time: 0 hr 15 min 59 sec) 
Heartbeat CPU 0 instructions: 30000000 cycles: 12919769 heartbeat IPC: 3.36843 cumulative IPC: 2.32202 (Simulation time: 0 hr 16 min 23 sec) 
Heartbeat CPU 0 instructions: 31000000 cycles: 13262153 heartbeat IPC: 2.9207 cumulative IPC: 2.33748 (Simulation time: 0 hr 16 min 50 sec) 
Heartbeat CPU 0 instructions: 32000000 cycles: 13608676 heartbeat IPC: 2.88581 cumulative IPC: 2.35144 (Simulation time: 0 hr 17 min 17 sec) 
Heartbeat CPU 0 instructions: 33000001 cycles: 13967182 heartbeat IPC: 2.78936 cumulative IPC: 2.36268 (Simulation time: 0 hr 17 min 43 sec) 
Heartbeat CPU 0 instructions: 34000001 cycles: 14310787 heartbeat IPC: 2.91032 cumulative IPC: 2.37583 (Simulation time: 0 hr 18 min 6 sec) 
Heartbeat CPU 0 instructions: 35000003 cycles: 14651879 heartbeat IPC: 2.93177 cumulative IPC: 2.38877 (Simulation time: 0 hr 18 min 28 sec) 
Heartbeat CPU 0 instructions: 36000000 cycles: 14990240 heartbeat IPC: 2.95541 cumulative IPC: 2.40156 (Simulation time: 0 hr 18 min 52 sec) 
Heartbeat CPU 0 instructions: 37000000 cycles: 15329347 heartbeat IPC: 2.94892 cumulative IPC: 2.41367 (Simulation time: 0 hr 19 min 16 sec) 
Heartbeat CPU 0 instructions: 38000002 cycles: 15671389 heartbeat IPC: 2.92362 cumulative IPC: 2.4248 (Simulation time: 0 hr 19 min 39 sec) 
Heartbeat CPU 0 instructions: 39000001 cycles: 16011084 heartbeat IPC: 2.94381 cumulative IPC: 2.43581 (Simulation time: 0 hr 20 min 3 sec) 
Heartbeat CPU 0 instructions: 40000000 cycles: 16367450 heartbeat IPC: 2.8061 cumulative IPC: 2.44387 (Simulation time: 0 hr 20 min 27 sec) 
Heartbeat CPU 0 instructions: 41000000 cycles: 16710917 heartbeat IPC: 2.91149 cumulative IPC: 2.45349 (Simulation time: 0 hr 20 min 51 sec) 
Heartbeat CPU 0 instructions: 42000002 cycles: 17052513 heartbeat IPC: 2.92744 cumulative IPC: 2.46298 (Simulation time: 0 hr 21 min 13 sec) 
Heartbeat CPU 0 instructions: 43000000 cycles: 17388566 heartbeat IPC: 2.97572 cumulative IPC: 2.47289 (Simulation time: 0 hr 21 min 39 sec) 
Heartbeat CPU 0 instructions: 44000000 cycles: 17729337 heartbeat IPC: 2.93452 cumulative IPC: 2.48176 (Simulation time: 0 hr 22 min 4 sec) 
Heartbeat CPU 0 instructions: 45000001 cycles: 18065945 heartbeat IPC: 2.97082 cumulative IPC: 2.49087 (Simulation time: 0 hr 22 min 28 sec) 
Heartbeat CPU 0 instructions: 46000000 cycles: 18419380 heartbeat IPC: 2.82937 cumulative IPC: 2.49737 (Simulation time: 0 hr 22 min 54 sec) 
Heartbeat CPU 0 instructions: 47000003 cycles: 18769049 heartbeat IPC: 2.85986 cumulative IPC: 2.50412 (Simulation time: 0 hr 23 min 20 sec) 
Heartbeat CPU 0 instructions: 48000000 cycles: 19118969 heartbeat IPC: 2.85779 cumulative IPC: 2.5106 (Simulation time: 0 hr 23 min 43 sec) 
Heartbeat CPU 0 instructions: 49000003 cycles: 19474378 heartbeat IPC: 2.81367 cumulative IPC: 2.51613 (Simulation time: 0 hr 24 min 6 sec) 
Heartbeat CPU 0 instructions: 50000003 cycles: 19822637 heartbeat IPC: 2.87143 cumulative IPC: 2.52237 (Simulation time: 0 hr 24 min 29 sec) 

Warmup complete CPU 0 instructions: 50000003 cycles: 19822637 (Simulation time: 0 hr 24 min 30 sec) 

Heartbeat CPU 0 instructions: 51000002 cycles: 20780722 heartbeat IPC: 1.04375 cumulative IPC: 1.04375 (Simulation time: 0 hr 24 min 57 sec) 
Heartbeat CPU 0 instructions: 52000000 cycles: 21747807 heartbeat IPC: 1.03403 cumulative IPC: 1.03887 (Simulation time: 0 hr 25 min 29 sec) 
Heartbeat CPU 0 instructions: 53000001 cycles: 22726873 heartbeat IPC: 1.02138 cumulative IPC: 1.03297 (Simulation time: 0 hr 25 min 59 sec) 
Heartbeat CPU 0 instructions: 54000003 cycles: 23708586 heartbeat IPC: 1.01863 cumulative IPC: 1.02935 (Simulation time: 0 hr 26 min 31 sec) 
Heartbeat CPU 0 instructions: 55000000 cycles: 24672905 heartbeat IPC: 1.037 cumulative IPC: 1.03087 (Simulation time: 0 hr 27 min 1 sec) 
Heartbeat CPU 0 instructions: 56000000 cycles: 25649141 heartbeat IPC: 1.02434 cumulative IPC: 1.02978 (Simulation time: 0 hr 27 min 32 sec) 
Heartbeat CPU 0 instructions: 57000002 cycles: 26616956 heartbeat IPC: 1.03326 cumulative IPC: 1.03027 (Simulation time: 0 hr 28 min 2 sec) 
Heartbeat CPU 0 instructions: 58000003 cycles: 27590206 heartbeat IPC: 1.02749 cumulative IPC: 1.02992 (Simulation time: 0 hr 28 min 32 sec) 
Heartbeat CPU 0 instructions: 59000003 cycles: 28620736 heartbeat IPC: 0.970374 cumulative IPC: 1.02295 (Simulation time: 0 hr 29 min 1 sec) 
Heartbeat CPU 0 instructions: 60000000 cycles: 29828128 heartbeat IPC: 0.828229 cumulative IPC: 0.999451 (Simulation time: 0 hr 29 min 35 sec) 
Heartbeat CPU 0 instructions: 61000000 cycles: 31034825 heartbeat IPC: 0.828708 cumulative IPC: 0.981075 (Simulation time: 0 hr 30 min 8 sec) 
Heartbeat CPU 0 instructions: 62000003 cycles: 32258276 heartbeat IPC: 0.817363 cumulative IPC: 0.964969 (Simulation time: 0 hr 30 min 42 sec) 
Heartbeat CPU 0 instructions: 63000001 cycles: 33488606 heartbeat IPC: 0.812788 cumulative IPC: 0.951268 (Simulation time: 0 hr 31 min 15 sec) 
Heartbeat CPU 0 instructions: 64000000 cycles: 34809333 heartbeat IPC: 0.757158 cumulative IPC: 0.934162 (Simulation time: 0 hr 31 min 51 sec) 
Heartbeat CPU 0 instructions: 65000001 cycles: 36013662 heartbeat IPC: 0.830339 cumulative IPC: 0.926439 (Simulation time: 0 hr 32 min 27 sec) 
Heartbeat CPU 0 instructions: 66000003 cycles: 37215526 heartbeat IPC: 0.832043 cumulative IPC: 0.919916 (Simulation time: 0 hr 33 min 0 sec) 
Heartbeat CPU 0 instructions: 67000000 cycles: 38426744 heartbeat IPC: 0.825613 cumulative IPC: 0.913777 (Simulation time: 0 hr 33 min 35 sec) 
Heartbeat CPU 0 instructions: 68000000 cycles: 39740385 heartbeat IPC: 0.761243 cumulative IPC: 0.903716 (Simulation time: 0 hr 34 min 11 sec) 
Heartbeat CPU 0 instructions: 69000000 cycles: 40936860 heartbeat IPC: 0.835788 cumulative IPC: 0.899867 (Simulation time: 0 hr 34 min 51 sec) 
Heartbeat CPU 0 instructions: 70000002 cycles: 42139120 heartbeat IPC: 0.831769 cumulative IPC: 0.896199 (Simulation time: 0 hr 35 min 30 sec) 
Heartbeat CPU 0 instructions: 71000003 cycles: 43345854 heartbeat IPC: 0.828684 cumulative IPC: 0.892735 (Simulation time: 0 hr 36 min 8 sec) 
Heartbeat CPU 0 instructions: 72000000 cycles: 44553855 heartbeat IPC: 0.827811 cumulative IPC: 0.889564 (Simulation time: 0 hr 36 min 40 sec) 
Heartbeat CPU 0 instructions: 73000002 cycles: 45857249 heartbeat IPC: 0.767229 cumulative IPC: 0.883439 (Simulation time: 0 hr 37 min 13 sec) 
Heartbeat CPU 0 instructions: 74000000 cycles: 47056738 heartbeat IPC: 0.833687 cumulative IPC: 0.881248 (Simulation time: 0 hr 37 min 47 sec) 
Heartbeat CPU 0 instructions: 75000001 cycles: 48258127 heartbeat IPC: 0.832371 cumulative IPC: 0.879183 (Simulation time: 0 hr 38 min 24 sec) 
Heartbeat CPU 0 instructions: 76000000 cycles: 49467424 heartbeat IPC: 0.826926 cumulative IPC: 0.877051 (Simulation time: 0 hr 39 min 0 sec) 
Heartbeat CPU 0 instructions: 77000001 cycles: 50724528 heartbeat IPC: 0.79548 cumulative IPC: 0.873733 (Simulation time: 0 hr 39 min 31 sec) 
Heartbeat CPU 0 instructions: 78000003 cycles: 51894518 heartbeat IPC: 0.85471 cumulative IPC: 0.873039 (Simulation time: 0 hr 39 min 54 sec) 
Heartbeat CPU 0 instructions: 79000000 cycles: 52813393 heartbeat IPC: 1.08828 cumulative IPC: 0.879034 (Simulation time: 0 hr 40 min 21 sec) 
Heartbeat CPU 0 instructions: 80000000 cycles: 53716844 heartbeat IPC: 1.10687 cumulative IPC: 0.885107 (Simulation time: 0 hr 40 min 46 sec) 
Heartbeat CPU 0 instructions: 81000000 cycles: 54562588 heartbeat IPC: 1.18239 cumulative IPC: 0.892344 (Simulation time: 0 hr 41 min 15 sec) 
Heartbeat CPU 0 instructions: 82000001 cycles: 55454420 heartbeat IPC: 1.12129 cumulative IPC: 0.898075 (Simulation time: 0 hr 41 min 41 sec) 
Heartbeat CPU 0 instructions: 83000000 cycles: 56378306 heartbeat IPC: 1.08238 cumulative IPC: 0.902733 (Simulation time: 0 hr 42 min 6 sec) 
Heartbeat CPU 0 instructions: 84000000 cycles: 57294990 heartbeat IPC: 1.09089 cumulative IPC: 0.907336 (Simulation time: 0 hr 42 min 31 sec) 
Heartbeat CPU 0 instructions: 85000002 cycles: 58230458 heartbeat IPC: 1.06899 cumulative IPC: 0.911273 (Simulation time: 0 hr 43 min 3 sec) 
Heartbeat CPU 0 instructions: 86000002 cycles: 59160209 heartbeat IPC: 1.07556 cumulative IPC: 0.915156 (Simulation time: 0 hr 43 min 36 sec) 
Heartbeat CPU 0 instructions: 87000002 cycles: 60089956 heartbeat IPC: 1.07556 cumulative IPC: 0.918859 (Simulation time: 0 hr 44 min 14 sec) 
Heartbeat CPU 0 instructions: 88000000 cycles: 61139535 heartbeat IPC: 0.952761 cumulative IPC: 0.91972 (Simulation time: 0 hr 44 min 50 sec) 
Heartbeat CPU 0 instructions: 89000002 cycles: 62231746 heartbeat IPC: 0.915576 cumulative IPC: 0.919614 (Simulation time: 0 hr 45 min 23 sec) 
Heartbeat CPU 0 instructions: 90000001 cycles: 63323693 heartbeat IPC: 0.915794 cumulative IPC: 0.919518 (Simulation time: 0 hr 45 min 56 sec) 
Heartbeat CPU 0 instructions: 91000001 cycles: 64423395 heartbeat IPC: 0.909337 cumulative IPC: 0.919267 (Simulation time: 0 hr 46 min 30 sec) 
Heartbeat CPU 0 instructions: 92000000 cycles: 65510954 heartbeat IPC: 0.919489 cumulative IPC: 0.919272 (Simulation time: 0 hr 47 min 7 sec) 
Heartbeat CPU 0 instructions: 93000001 cycles: 66597083 heartbeat IPC: 0.920702 cumulative IPC: 0.919305 (Simulation time: 0 hr 47 min 42 sec) 
Heartbeat CPU 0 instructions: 94000001 cycles: 67679343 heartbeat IPC: 0.923992 cumulative IPC: 0.919411 (Simulation time: 0 hr 48 min 21 sec) 
Heartbeat CPU 0 instructions: 95000000 cycles: 68764348 heartbeat IPC: 0.921654 cumulative IPC: 0.919461 (Simulation time: 0 hr 48 min 59 sec) 
Heartbeat CPU 0 instructions: 96000000 cycles: 69845916 heartbeat IPC: 0.924584 cumulative IPC: 0.919572 (Simulation time: 0 hr 49 min 32 sec) 
Heartbeat CPU 0 instructions: 97000002 cycles: 70929165 heartbeat IPC: 0.923151 cumulative IPC: 0.919648 (Simulation time: 0 hr 50 min 6 sec) 
Heartbeat CPU 0 instructions: 98000002 cycles: 72011392 heartbeat IPC: 0.924021 cumulative IPC: 0.919738 (Simulation time: 0 hr 50 min 40 sec) 
Heartbeat CPU 0 instructions: 99000000 cycles: 73093594 heartbeat IPC: 0.92404 cumulative IPC: 0.919826 (Simulation time: 0 hr 51 min 17 sec) 
Heartbeat CPU 0 instructions: 100000000 cycles: 74179435 heartbeat IPC: 0.920945 cumulative IPC: 0.919848 (Simulation time: 0 hr 51 min 53 sec) 
Heartbeat CPU 0 instructions: 101000000 cycles: 75267030 heartbeat IPC: 0.91946 cumulative IPC: 0.91984 (Simulation time: 0 hr 52 min 27 sec) 
Heartbeat CPU 0 instructions: 102000000 cycles: 76357027 heartbeat IPC: 0.917434 cumulative IPC: 0.919794 (Simulation time: 0 hr 53 min 3 sec) 
Heartbeat CPU 0 instructions: 103000002 cycles: 77446349 heartbeat IPC: 0.918004 cumulative IPC: 0.91976 (Simulation time: 0 hr 53 min 37 sec) 
Heartbeat CPU 0 instructions: 104000000 cycles: 78535090 heartbeat IPC: 0.91849 cumulative IPC: 0.919737 (Simulation time: 0 hr 54 min 9 sec) 
Heartbeat CPU 0 instructions: 105000003 cycles: 79629014 heartbeat IPC: 0.914143 cumulative IPC: 0.919634 (Simulation time: 0 hr 54 min 43 sec) 
Heartbeat CPU 0 instructions: 106000002 cycles: 80725742 heartbeat IPC: 0.911802 cumulative IPC: 0.919493 (Simulation time: 0 hr 55 min 15 sec) 
Heartbeat CPU 0 instructions: 107000001 cycles: 81809979 heartbeat IPC: 0.922307 cumulative IPC: 0.919543 (Simulation time: 0 hr 55 min 53 sec) 
Heartbeat CPU 0 instructions: 108000000 cycles: 82904239 heartbeat IPC: 0.913859 cumulative IPC: 0.919444 (Simulation time: 0 hr 56 min 32 sec) 
Heartbeat CPU 0 instructions: 109000001 cycles: 83999376 heartbeat IPC: 0.913129 cumulative IPC: 0.919336 (Simulation time: 0 hr 57 min 7 sec) 
Heartbeat CPU 0 instructions: 110000002 cycles: 85098352 heartbeat IPC: 0.909939 cumulative IPC: 0.919178 (Simulation time: 0 hr 57 min 40 sec) 
Heartbeat CPU 0 instructions: 111000000 cycles: 86185699 heartbeat IPC: 0.919668 cumulative IPC: 0.919186 (Simulation time: 0 hr 58 min 16 sec) 
Heartbeat CPU 0 instructions: 112000000 cycles: 87275480 heartbeat IPC: 0.917616 cumulative IPC: 0.919161 (Simulation time: 0 hr 58 min 50 sec) 
Heartbeat CPU 0 instructions: 113000002 cycles: 88365947 heartbeat IPC: 0.91704 cumulative IPC: 0.919127 (Simulation time: 0 hr 59 min 24 sec) 
Heartbeat CPU 0 instructions: 114000001 cycles: 89459274 heartbeat IPC: 0.914639 cumulative IPC: 0.919056 (Simulation time: 1 hr 0 min 1 sec) 
Heartbeat CPU 0 instructions: 115000001 cycles: 90546097 heartbeat IPC: 0.920113 cumulative IPC: 0.919073 (Simulation time: 1 hr 0 min 34 sec) 
Heartbeat CPU 0 instructions: 116000000 cycles: 91633015 heartbeat IPC: 0.920032 cumulative IPC: 0.919087 (Simulation time: 1 hr 1 min 11 sec) 
Heartbeat CPU 0 instructions: 117000001 cycles: 92719374 heartbeat IPC: 0.920507 cumulative IPC: 0.919108 (Simulation time: 1 hr 1 min 45 sec) 
Heartbeat CPU 0 instructions: 118000000 cycles: 93805771 heartbeat IPC: 0.920473 cumulative IPC: 0.919128 (Simulation time: 1 hr 2 min 20 sec) 
Heartbeat CPU 0 instructions: 119000000 cycles: 94893721 heartbeat IPC: 0.91916 cumulative IPC: 0.919129 (Simulation time: 1 hr 2 min 57 sec) 
Heartbeat CPU 0 instructions: 120000000 cycles: 95983182 heartbeat IPC: 0.917885 cumulative IPC: 0.919111 (Simulation time: 1 hr 3 min 35 sec) 
Heartbeat CPU 0 instructions: 121000000 cycles: 97071248 heartbeat IPC: 0.919062 cumulative IPC: 0.91911 (Simulation time: 1 hr 4 min 7 sec) 
Heartbeat CPU 0 instructions: 122000000 cycles: 98163043 heartbeat IPC: 0.915923 cumulative IPC: 0.919066 (Simulation time: 1 hr 4 min 43 sec) 
Heartbeat CPU 0 instructions: 123000001 cycles: 99256937 heartbeat IPC: 0.914166 cumulative IPC: 0.918998 (Simulation time: 1 hr 5 min 15 sec) 
Heartbeat CPU 0 instructions: 124000000 cycles: 100352700 heartbeat IPC: 0.912605 cumulative IPC: 0.918911 (Simulation time: 1 hr 5 min 52 sec) 
Heartbeat CPU 0 instructions: 125000002 cycles: 101444791 heartbeat IPC: 0.915676 cumulative IPC: 0.918868 (Simulation time: 1 hr 6 min 28 sec) 
Heartbeat CPU 0 instructions: 126000002 cycles: 102534139 heartbeat IPC: 0.91798 cumulative IPC: 0.918857 (Simulation time: 1 hr 7 min 2 sec) 
Heartbeat CPU 0 instructions: 127000003 cycles: 103622556 heartbeat IPC: 0.918766 cumulative IPC: 0.918855 (Simulation time: 1 hr 7 min 37 sec) 
Heartbeat CPU 0 instructions: 128000000 cycles: 104711097 heartbeat IPC: 0.918658 cumulative IPC: 0.918853 (Simulation time: 1 hr 8 min 8 sec) 
Heartbeat CPU 0 instructions: 129000001 cycles: 105798704 heartbeat IPC: 0.919451 cumulative IPC: 0.91886 (Simulation time: 1 hr 8 min 41 sec) 
Heartbeat CPU 0 instructions: 130000001 cycles: 106885636 heartbeat IPC: 0.920021 cumulative IPC: 0.918875 (Simulation time: 1 hr 9 min 12 sec) 
Heartbeat CPU 0 instructions: 131000001 cycles: 107974676 heartbeat IPC: 0.91824 cumulative IPC: 0.918867 (Simulation time: 1 hr 9 min 41 sec) 
Heartbeat CPU 0 instructions: 132000000 cycles: 109066277 heartbeat IPC: 0.916085 cumulative IPC: 0.918833 (Simulation time: 1 hr 10 min 11 sec) 
Heartbeat CPU 0 instructions: 133000002 cycles: 110170216 heartbeat IPC: 0.905849 cumulative IPC: 0.918674 (Simulation time: 1 hr 10 min 43 sec) 
Heartbeat CPU 0 instructions: 134000000 cycles: 111264876 heartbeat IPC: 0.913524 cumulative IPC: 0.918613 (Simulation time: 1 hr 11 min 13 sec) 
Heartbeat CPU 0 instructions: 135000003 cycles: 112364067 heartbeat IPC: 0.909763 cumulative IPC: 0.918508 (Simulation time: 1 hr 11 min 44 sec) 
Heartbeat CPU 0 instructions: 136000000 cycles: 113463205 heartbeat IPC: 0.909801 cumulative IPC: 0.918405 (Simulation time: 1 hr 12 min 14 sec) 
Heartbeat CPU 0 instructions: 137000001 cycles: 114559127 heartbeat IPC: 0.912475 cumulative IPC: 0.918337 (Simulation time: 1 hr 12 min 46 sec) 
Heartbeat CPU 0 instructions: 138000000 cycles: 115654163 heartbeat IPC: 0.913211 cumulative IPC: 0.918278 (Simulation time: 1 hr 13 min 20 sec) 
Heartbeat CPU 0 instructions: 139000002 cycles: 116298042 heartbeat IPC: 1.55309 cumulative IPC: 0.922515 (Simulation time: 1 hr 13 min 49 sec) 
Heartbeat CPU 0 instructions: 140000000 cycles: 116936691 heartbeat IPC: 1.5658 cumulative IPC: 0.926745 (Simulation time: 1 hr 14 min 21 sec) 
Heartbeat CPU 0 instructions: 141000000 cycles: 117573816 heartbeat IPC: 1.56955 cumulative IPC: 0.930935 (Simulation time: 1 hr 14 min 47 sec) 
Heartbeat CPU 0 instructions: 142000002 cycles: 118209264 heartbeat IPC: 1.5737 cumulative IPC: 0.935086 (Simulation time: 1 hr 15 min 13 sec) 
Heartbeat CPU 0 instructions: 143000002 cycles: 118847676 heartbeat IPC: 1.56639 cumulative IPC: 0.939156 (Simulation time: 1 hr 15 min 39 sec) 
Heartbeat CPU 0 instructions: 144000000 cycles: 119488336 heartbeat IPC: 1.56089 cumulative IPC: 0.943153 (Simulation time: 1 hr 16 min 4 sec) 
Heartbeat CPU 0 instructions: 145000001 cycles: 120124342 heartbeat IPC: 1.57231 cumulative IPC: 0.947142 (Simulation time: 1 hr 16 min 30 sec) 
Heartbeat CPU 0 instructions: 146000002 cycles: 120757357 heartbeat IPC: 1.57974 cumulative IPC: 0.95111 (Simulation time: 1 hr 16 min 54 sec) 
Heartbeat CPU 0 instructions: 147000002 cycles: 122096029 heartbeat IPC: 0.747009 cumulative IPC: 0.948438 (Simulation time: 1 hr 17 min 20 sec) 
Heartbeat CPU 0 instructions: 148000000 cycles: 122615747 heartbeat IPC: 1.92412 cumulative IPC: 0.953371 (Simulation time: 1 hr 17 min 39 sec) 
Heartbeat CPU 0 instructions: 149000000 cycles: 123129857 heartbeat IPC: 1.94511 cumulative IPC: 0.958307 (Simulation time: 1 hr 17 min 59 sec) 
Heartbeat CPU 0 instructions: 150000003 cycles: 123639740 heartbeat IPC: 1.96124 cumulative IPC: 0.963232 (Simulation time: 1 hr 18 min 19 sec) 
Finished CPU 0 instructions: 100000000 cycles: 103817103 cummulative IPC: 0.963232 (Simulation time: 1 hr 18 min 19 sec) 

ChampSim completed all CPUs

Region of Interest Statistics

CPU 0 cummulative IPC: 0.963232 instructions: 100000000 cycles: 103817103
LLC TOTAL     ACCESS:     678826  HIT:     522943  MISS:     155883
LLC LOAD      ACCESS:     201693  HIT:     200143  MISS:       1550
LLC RFO       ACCESS:      77432  HIT:      28760  MISS:      48672
LLC PREFETCH  ACCESS:     319036  HIT:     255709  MISS:      63327
LLC WRITEBACK ACCESS:      80665  HIT:      38331  MISS:      42334
