
*** ChampSim Multicore Out-of-Order Simulator ***

Warmup Instructions: 50000000
Simulation Instructions: 100000000
Configuration: 2
Number of CPUs: 1
LLC sets: 2048
LLC ways: 16
Off-chip DRAM Channels: 1 Width: 64-bit Data Rate: 1600 MT/s

CPU 0 runs /datasets/cs240c-wi22-a00-public/data/Assignment2-gz/perlbench_135B.trace.gz
CPU 0 L1D next line prefetcher
CPU 0 L2C IP-based stride prefetcher
config 2, num_core 1, llc_sets 2048
Heartbeat CPU 0 instructions: 1000000 cycles: 600082 heartbeat IPC: 1.66644 cumulative IPC: 1.66644 (Simulation time: 0 hr 0 min 39 sec) 
Heartbeat CPU 0 instructions: 2000000 cycles: 1209807 heartbeat IPC: 1.64008 cumulative IPC: 1.65316 (Simulation time: 0 hr 1 min 19 sec) 
Heartbeat CPU 0 instructions: 3000000 cycles: 1833789 heartbeat IPC: 1.60261 cumulative IPC: 1.63596 (Simulation time: 0 hr 2 min 0 sec) 
Heartbeat CPU 0 instructions: 4000000 cycles: 2493938 heartbeat IPC: 1.51481 cumulative IPC: 1.60389 (Simulation time: 0 hr 2 min 43 sec) 
Heartbeat CPU 0 instructions: 5000001 cycles: 3080782 heartbeat IPC: 1.70403 cumulative IPC: 1.62296 (Simulation time: 0 hr 3 min 24 sec) 
Heartbeat CPU 0 instructions: 6000002 cycles: 3683562 heartbeat IPC: 1.65898 cumulative IPC: 1.62886 (Simulation time: 0 hr 4 min 5 sec) 
Heartbeat CPU 0 instructions: 7000001 cycles: 4285323 heartbeat IPC: 1.66179 cumulative IPC: 1.63348 (Simulation time: 0 hr 4 min 44 sec) 
Heartbeat CPU 0 instructions: 8000000 cycles: 4895888 heartbeat IPC: 1.63783 cumulative IPC: 1.63402 (Simulation time: 0 hr 5 min 22 sec) 
Heartbeat CPU 0 instructions: 9000001 cycles: 5537219 heartbeat IPC: 1.55926 cumulative IPC: 1.62536 (Simulation time: 0 hr 6 min 5 sec) 
Heartbeat CPU 0 instructions: 10000000 cycles: 6196118 heartbeat IPC: 1.51768 cumulative IPC: 1.61391 (Simulation time: 0 hr 6 min 51 sec) 
Heartbeat CPU 0 instructions: 11000003 cycles: 6892237 heartbeat IPC: 1.43654 cumulative IPC: 1.596 (Simulation time: 0 hr 7 min 35 sec) 
Heartbeat CPU 0 instructions: 12000000 cycles: 7508430 heartbeat IPC: 1.62286 cumulative IPC: 1.5982 (Simulation time: 0 hr 8 min 16 sec) 
Heartbeat CPU 0 instructions: 13000000 cycles: 8137346 heartbeat IPC: 1.59004 cumulative IPC: 1.59757 (Simulation time: 0 hr 8 min 59 sec) 
Heartbeat CPU 0 instructions: 14000002 cycles: 8777829 heartbeat IPC: 1.56132 cumulative IPC: 1.59493 (Simulation time: 0 hr 9 min 44 sec) 
Heartbeat CPU 0 instructions: 15000003 cycles: 9416713 heartbeat IPC: 1.56523 cumulative IPC: 1.59291 (Simulation time: 0 hr 10 min 24 sec) 
Heartbeat CPU 0 instructions: 16000000 cycles: 10056551 heartbeat IPC: 1.56289 cumulative IPC: 1.591 (Simulation time: 0 hr 11 min 8 sec) 
Heartbeat CPU 0 instructions: 17000000 cycles: 10697710 heartbeat IPC: 1.55968 cumulative IPC: 1.58913 (Simulation time: 0 hr 11 min 54 sec) 
Heartbeat CPU 0 instructions: 18000000 cycles: 11338388 heartbeat IPC: 1.56085 cumulative IPC: 1.58753 (Simulation time: 0 hr 12 min 32 sec) 
Heartbeat CPU 0 instructions: 19000003 cycles: 11975471 heartbeat IPC: 1.56966 cumulative IPC: 1.58658 (Simulation time: 0 hr 13 min 12 sec) 
Heartbeat CPU 0 instructions: 20000000 cycles: 12614320 heartbeat IPC: 1.56531 cumulative IPC: 1.5855 (Simulation time: 0 hr 13 min 57 sec) 
Heartbeat CPU 0 instructions: 21000000 cycles: 13249684 heartbeat IPC: 1.5739 cumulative IPC: 1.58494 (Simulation time: 0 hr 14 min 35 sec) 
Heartbeat CPU 0 instructions: 22000002 cycles: 13888428 heartbeat IPC: 1.56558 cumulative IPC: 1.58405 (Simulation time: 0 hr 15 min 12 sec) 
Heartbeat CPU 0 instructions: 23000003 cycles: 14555956 heartbeat IPC: 1.49807 cumulative IPC: 1.58011 (Simulation time: 0 hr 15 min 52 sec) 
Heartbeat CPU 0 instructions: 24000000 cycles: 15119689 heartbeat IPC: 1.77388 cumulative IPC: 1.58733 (Simulation time: 0 hr 16 min 27 sec) 
Heartbeat CPU 0 instructions: 25000000 cycles: 15776594 heartbeat IPC: 1.52229 cumulative IPC: 1.58463 (Simulation time: 0 hr 17 min 5 sec) 
Heartbeat CPU 0 instructions: 26000001 cycles: 16392478 heartbeat IPC: 1.62368 cumulative IPC: 1.58609 (Simulation time: 0 hr 17 min 42 sec) 
Heartbeat CPU 0 instructions: 27000000 cycles: 17032706 heartbeat IPC: 1.56194 cumulative IPC: 1.58519 (Simulation time: 0 hr 18 min 20 sec) 
Heartbeat CPU 0 instructions: 28000000 cycles: 17673415 heartbeat IPC: 1.56077 cumulative IPC: 1.5843 (Simulation time: 0 hr 19 min 2 sec) 
Heartbeat CPU 0 instructions: 29000000 cycles: 18310945 heartbeat IPC: 1.56855 cumulative IPC: 1.58375 (Simulation time: 0 hr 19 min 41 sec) 
Heartbeat CPU 0 instructions: 30000002 cycles: 18956585 heartbeat IPC: 1.54885 cumulative IPC: 1.58256 (Simulation time: 0 hr 20 min 21 sec) 
Heartbeat CPU 0 instructions: 31000001 cycles: 19593192 heartbeat IPC: 1.57083 cumulative IPC: 1.58218 (Simulation time: 0 hr 20 min 59 sec) 
Heartbeat CPU 0 instructions: 32000000 cycles: 20233356 heartbeat IPC: 1.5621 cumulative IPC: 1.58155 (Simulation time: 0 hr 21 min 38 sec) 
Heartbeat CPU 0 instructions: 33000000 cycles: 20868676 heartbeat IPC: 1.57401 cumulative IPC: 1.58132 (Simulation time: 0 hr 22 min 14 sec) 
Heartbeat CPU 0 instructions: 34000001 cycles: 21505010 heartbeat IPC: 1.5715 cumulative IPC: 1.58103 (Simulation time: 0 hr 22 min 51 sec) 
Heartbeat CPU 0 instructions: 35000003 cycles: 22160766 heartbeat IPC: 1.52496 cumulative IPC: 1.57937 (Simulation time: 0 hr 23 min 29 sec) 
Heartbeat CPU 0 instructions: 36000000 cycles: 22759786 heartbeat IPC: 1.66939 cumulative IPC: 1.58174 (Simulation time: 0 hr 24 min 9 sec) 
Heartbeat CPU 0 instructions: 37000000 cycles: 23374751 heartbeat IPC: 1.62611 cumulative IPC: 1.5829 (Simulation time: 0 hr 24 min 46 sec) 
Heartbeat CPU 0 instructions: 38000002 cycles: 23946975 heartbeat IPC: 1.74757 cumulative IPC: 1.58684 (Simulation time: 0 hr 25 min 20 sec) 
Heartbeat CPU 0 instructions: 39000000 cycles: 24550956 heartbeat IPC: 1.65568 cumulative IPC: 1.58853 (Simulation time: 0 hr 26 min 0 sec) 
Heartbeat CPU 0 instructions: 40000000 cycles: 25102467 heartbeat IPC: 1.8132 cumulative IPC: 1.59347 (Simulation time: 0 hr 26 min 40 sec) 
Heartbeat CPU 0 instructions: 41000001 cycles: 25668996 heartbeat IPC: 1.76514 cumulative IPC: 1.59726 (Simulation time: 0 hr 27 min 18 sec) 
Heartbeat CPU 0 instructions: 42000003 cycles: 26306391 heartbeat IPC: 1.56889 cumulative IPC: 1.59657 (Simulation time: 0 hr 27 min 53 sec) 
Heartbeat CPU 0 instructions: 43000001 cycles: 26972482 heartbeat IPC: 1.50129 cumulative IPC: 1.59422 (Simulation time: 0 hr 28 min 31 sec) 
Heartbeat CPU 0 instructions: 44000000 cycles: 27584668 heartbeat IPC: 1.63349 cumulative IPC: 1.59509 (Simulation time: 0 hr 29 min 8 sec) 
Heartbeat CPU 0 instructions: 45000003 cycles: 28230514 heartbeat IPC: 1.54836 cumulative IPC: 1.59402 (Simulation time: 0 hr 29 min 46 sec) 
Heartbeat CPU 0 instructions: 46000000 cycles: 28870117 heartbeat IPC: 1.56347 cumulative IPC: 1.59334 (Simulation time: 0 hr 30 min 26 sec) 
Heartbeat CPU 0 instructions: 47000000 cycles: 29509238 heartbeat IPC: 1.56465 cumulative IPC: 1.59272 (Simulation time: 0 hr 31 min 6 sec) 
Heartbeat CPU 0 instructions: 48000000 cycles: 30149392 heartbeat IPC: 1.56212 cumulative IPC: 1.59207 (Simulation time: 0 hr 31 min 46 sec) 
Heartbeat CPU 0 instructions: 49000003 cycles: 30791314 heartbeat IPC: 1.55783 cumulative IPC: 1.59136 (Simulation time: 0 hr 32 min 25 sec) 
Heartbeat CPU 0 instructions: 50000001 cycles: 31430919 heartbeat IPC: 1.56346 cumulative IPC: 1.59079 (Simulation time: 0 hr 33 min 5 sec) 

Warmup complete CPU 0 instructions: 50000001 cycles: 31430919 (Simulation time: 0 hr 33 min 5 sec) 

Heartbeat CPU 0 instructions: 51000000 cycles: 34062006 heartbeat IPC: 0.380071 cumulative IPC: 0.380071 (Simulation time: 0 hr 33 min 47 sec) 
Heartbeat CPU 0 instructions: 52000000 cycles: 36683691 heartbeat IPC: 0.381434 cumulative IPC: 0.380751 (Simulation time: 0 hr 34 min 32 sec) 
Heartbeat CPU 0 instructions: 53000000 cycles: 39273678 heartbeat IPC: 0.386102 cumulative IPC: 0.382518 (Simulation time: 0 hr 35 min 16 sec) 
Heartbeat CPU 0 instructions: 54000001 cycles: 41922165 heartbeat IPC: 0.377574 cumulative IPC: 0.38127 (Simulation time: 0 hr 36 min 1 sec) 
Heartbeat CPU 0 instructions: 55000001 cycles: 44369231 heartbeat IPC: 0.408653 cumulative IPC: 0.386449 (Simulation time: 0 hr 36 min 49 sec) 
Heartbeat CPU 0 instructions: 56000000 cycles: 46492928 heartbeat IPC: 0.470876 cumulative IPC: 0.398353 (Simulation time: 0 hr 37 min 32 sec) 
Heartbeat CPU 0 instructions: 57000000 cycles: 48693576 heartbeat IPC: 0.454412 cumulative IPC: 0.4055 (Simulation time: 0 hr 38 min 14 sec) 
Heartbeat CPU 0 instructions: 58000002 cycles: 50641426 heartbeat IPC: 0.513388 cumulative IPC: 0.416439 (Simulation time: 0 hr 38 min 50 sec) 
Heartbeat CPU 0 instructions: 59000003 cycles: 52762608 heartbeat IPC: 0.471436 cumulative IPC: 0.421908 (Simulation time: 0 hr 39 min 33 sec) 
Heartbeat CPU 0 instructions: 60000000 cycles: 55721921 heartbeat IPC: 0.337915 cumulative IPC: 0.411675 (Simulation time: 0 hr 40 min 19 sec) 
Heartbeat CPU 0 instructions: 61000000 cycles: 58137641 heartbeat IPC: 0.413955 cumulative IPC: 0.411881 (Simulation time: 0 hr 41 min 3 sec) 
Heartbeat CPU 0 instructions: 62000001 cycles: 60933423 heartbeat IPC: 0.357682 cumulative IPC: 0.406745 (Simulation time: 0 hr 41 min 51 sec) 
Heartbeat CPU 0 instructions: 63000000 cycles: 63832149 heartbeat IPC: 0.344979 cumulative IPC: 0.401219 (Simulation time: 0 hr 42 min 40 sec) 
Heartbeat CPU 0 instructions: 64000000 cycles: 66726633 heartbeat IPC: 0.345485 cumulative IPC: 0.396649 (Simulation time: 0 hr 43 min 19 sec) 
Heartbeat CPU 0 instructions: 65000001 cycles: 69610624 heartbeat IPC: 0.346742 cumulative IPC: 0.392879 (Simulation time: 0 hr 44 min 4 sec) 
Heartbeat CPU 0 instructions: 66000001 cycles: 72447672 heartbeat IPC: 0.352479 cumulative IPC: 0.390085 (Simulation time: 0 hr 44 min 45 sec) 
Heartbeat CPU 0 instructions: 67000001 cycles: 75170485 heartbeat IPC: 0.367267 cumulative IPC: 0.388664 (Simulation time: 0 hr 45 min 27 sec) 
Heartbeat CPU 0 instructions: 68000000 cycles: 77894140 heartbeat IPC: 0.367153 cumulative IPC: 0.387403 (Simulation time: 0 hr 46 min 15 sec) 
Heartbeat CPU 0 instructions: 69000002 cycles: 80826391 heartbeat IPC: 0.341036 cumulative IPC: 0.384651 (Simulation time: 0 hr 47 min 3 sec) 
Heartbeat CPU 0 instructions: 70000003 cycles: 82627255 heartbeat IPC: 0.55529 cumulative IPC: 0.390653 (Simulation time: 0 hr 47 min 44 sec) 
Heartbeat CPU 0 instructions: 71000000 cycles: 84547000 heartbeat IPC: 0.520901 cumulative IPC: 0.39536 (Simulation time: 0 hr 48 min 24 sec) 
Heartbeat CPU 0 instructions: 72000000 cycles: 86531362 heartbeat IPC: 0.50394 cumulative IPC: 0.399271 (Simulation time: 0 hr 49 min 3 sec) 
Heartbeat CPU 0 instructions: 73000000 cycles: 88798977 heartbeat IPC: 0.440992 cumulative IPC: 0.40092 (Simulation time: 0 hr 49 min 44 sec) 
Heartbeat CPU 0 instructions: 74000000 cycles: 90717523 heartbeat IPC: 0.521228 cumulative IPC: 0.404813 (Simulation time: 0 hr 50 min 20 sec) 
Heartbeat CPU 0 instructions: 75000003 cycles: 92945161 heartbeat IPC: 0.448907 cumulative IPC: 0.40641 (Simulation time: 0 hr 50 min 58 sec) 
Heartbeat CPU 0 instructions: 76000000 cycles: 95685948 heartbeat IPC: 0.364858 cumulative IPC: 0.404638 (Simulation time: 0 hr 51 min 40 sec) 
Heartbeat CPU 0 instructions: 77000000 cycles: 98377123 heartbeat IPC: 0.371585 cumulative IPC: 0.403309 (Simulation time: 0 hr 52 min 19 sec) 
Heartbeat CPU 0 instructions: 78000000 cycles: 101314672 heartbeat IPC: 0.34042 cumulative IPC: 0.400665 (Simulation time: 0 hr 53 min 6 sec) 
Heartbeat CPU 0 instructions: 79000000 cycles: 103170760 heartbeat IPC: 0.538768 cumulative IPC: 0.404238 (Simulation time: 0 hr 53 min 45 sec) 
Heartbeat CPU 0 instructions: 80000000 cycles: 104953887 heartbeat IPC: 0.560813 cumulative IPC: 0.408036 (Simulation time: 0 hr 54 min 27 sec) 
Heartbeat CPU 0 instructions: 81000000 cycles: 106875283 heartbeat IPC: 0.520455 cumulative IPC: 0.410899 (Simulation time: 0 hr 55 min 13 sec) 
Heartbeat CPU 0 instructions: 82000000 cycles: 108792822 heartbeat IPC: 0.521502 cumulative IPC: 0.41364 (Simulation time: 0 hr 55 min 53 sec) 
Heartbeat CPU 0 instructions: 83000000 cycles: 111118897 heartbeat IPC: 0.429909 cumulative IPC: 0.414115 (Simulation time: 0 hr 56 min 40 sec) 
Heartbeat CPU 0 instructions: 84000000 cycles: 113071167 heartbeat IPC: 0.512224 cumulative IPC: 0.416461 (Simulation time: 0 hr 57 min 19 sec) 
Heartbeat CPU 0 instructions: 85000000 cycles: 114992182 heartbeat IPC: 0.520558 cumulative IPC: 0.418854 (Simulation time: 0 hr 58 min 0 sec) 
Heartbeat CPU 0 instructions: 86000002 cycles: 116910711 heartbeat IPC: 0.521234 cumulative IPC: 0.421152 (Simulation time: 0 hr 58 min 37 sec) 
Heartbeat CPU 0 instructions: 87000003 cycles: 119073969 heartbeat IPC: 0.462266 cumulative IPC: 0.422167 (Simulation time: 0 hr 59 min 17 sec) 
Heartbeat CPU 0 instructions: 88000000 cycles: 121847517 heartbeat IPC: 0.360548 cumulative IPC: 0.420277 (Simulation time: 1 hr 0 min 2 sec) 
Heartbeat CPU 0 instructions: 89000003 cycles: 124414549 heartbeat IPC: 0.389556 cumulative IPC: 0.419429 (Simulation time: 1 hr 0 min 45 sec) 
Heartbeat CPU 0 instructions: 90000001 cycles: 127284036 heartbeat IPC: 0.348494 cumulative IPC: 0.417305 (Simulation time: 1 hr 1 min 28 sec) 
Heartbeat CPU 0 instructions: 91000000 cycles: 129763250 heartbeat IPC: 0.403353 cumulative IPC: 0.416953 (Simulation time: 1 hr 2 min 7 sec) 
Heartbeat CPU 0 instructions: 92000000 cycles: 132216858 heartbeat IPC: 0.407563 cumulative IPC: 0.416725 (Simulation time: 1 hr 2 min 47 sec) 
Heartbeat CPU 0 instructions: 93000000 cycles: 134911494 heartbeat IPC: 0.371108 cumulative IPC: 0.415537 (Simulation time: 1 hr 3 min 32 sec) 
Heartbeat CPU 0 instructions: 94000001 cycles: 137577769 heartbeat IPC: 0.375055 cumulative IPC: 0.41452 (Simulation time: 1 hr 4 min 18 sec) 
Heartbeat CPU 0 instructions: 95000000 cycles: 140422330 heartbeat IPC: 0.351548 cumulative IPC: 0.412877 (Simulation time: 1 hr 5 min 1 sec) 
Heartbeat CPU 0 instructions: 96000000 cycles: 143444871 heartbeat IPC: 0.330847 cumulative IPC: 0.410663 (Simulation time: 1 hr 5 min 45 sec) 
Heartbeat CPU 0 instructions: 97000001 cycles: 146357504 heartbeat IPC: 0.343332 cumulative IPC: 0.408957 (Simulation time: 1 hr 6 min 30 sec) 
Heartbeat CPU 0 instructions: 98000000 cycles: 149018744 heartbeat IPC: 0.375764 cumulative IPC: 0.408206 (Simulation time: 1 hr 7 min 18 sec) 
Heartbeat CPU 0 instructions: 99000000 cycles: 151627167 heartbeat IPC: 0.383373 cumulative IPC: 0.407667 (Simulation time: 1 hr 7 min 58 sec) 
Heartbeat CPU 0 instructions: 100000000 cycles: 154260099 heartbeat IPC: 0.379805 cumulative IPC: 0.407069 (Simulation time: 1 hr 8 min 39 sec) 
Heartbeat CPU 0 instructions: 101000001 cycles: 156872825 heartbeat IPC: 0.382742 cumulative IPC: 0.406563 (Simulation time: 1 hr 9 min 15 sec) 
Heartbeat CPU 0 instructions: 102000000 cycles: 159508898 heartbeat IPC: 0.379352 cumulative IPC: 0.406003 (Simulation time: 1 hr 9 min 58 sec) 
Heartbeat CPU 0 instructions: 103000000 cycles: 162151801 heartbeat IPC: 0.378372 cumulative IPC: 0.405444 (Simulation time: 1 hr 10 min 41 sec) 
Heartbeat CPU 0 instructions: 104000000 cycles: 164889875 heartbeat IPC: 0.36522 cumulative IPC: 0.404619 (Simulation time: 1 hr 11 min 23 sec) 
Heartbeat CPU 0 instructions: 105000001 cycles: 167503751 heartbeat IPC: 0.382574 cumulative IPC: 0.404195 (Simulation time: 1 hr 12 min 6 sec) 
Heartbeat CPU 0 instructions: 106000001 cycles: 170132400 heartbeat IPC: 0.380424 cumulative IPC: 0.403745 (Simulation time: 1 hr 12 min 46 sec) 
Heartbeat CPU 0 instructions: 107000000 cycles: 172759418 heartbeat IPC: 0.380659 cumulative IPC: 0.403316 (Simulation time: 1 hr 13 min 29 sec) 
Heartbeat CPU 0 instructions: 108000000 cycles: 175381603 heartbeat IPC: 0.381361 cumulative IPC: 0.402916 (Simulation time: 1 hr 14 min 8 sec) 
Heartbeat CPU 0 instructions: 109000001 cycles: 177961099 heartbeat IPC: 0.387673 cumulative IPC: 0.402647 (Simulation time: 1 hr 14 min 47 sec) 
Heartbeat CPU 0 instructions: 110000003 cycles: 180113391 heartbeat IPC: 0.464622 cumulative IPC: 0.403545 (Simulation time: 1 hr 15 min 21 sec) 
Heartbeat CPU 0 instructions: 111000000 cycles: 182502873 heartbeat IPC: 0.418499 cumulative IPC: 0.403781 (Simulation time: 1 hr 15 min 51 sec) 
Heartbeat CPU 0 instructions: 112000000 cycles: 185326202 heartbeat IPC: 0.354192 cumulative IPC: 0.402871 (Simulation time: 1 hr 16 min 27 sec) 
Heartbeat CPU 0 instructions: 113000000 cycles: 188011063 heartbeat IPC: 0.372459 cumulative IPC: 0.40235 (Simulation time: 1 hr 16 min 58 sec) 
Heartbeat CPU 0 instructions: 114000002 cycles: 190585166 heartbeat IPC: 0.388486 cumulative IPC: 0.402126 (Simulation time: 1 hr 17 min 26 sec) 
Heartbeat CPU 0 instructions: 115000001 cycles: 193207401 heartbeat IPC: 0.381354 cumulative IPC: 0.401789 (Simulation time: 1 hr 17 min 53 sec) 
Heartbeat CPU 0 instructions: 116000000 cycles: 195802294 heartbeat IPC: 0.385372 cumulative IPC: 0.40153 (Simulation time: 1 hr 18 min 19 sec) 
Heartbeat CPU 0 instructions: 117000002 cycles: 198385250 heartbeat IPC: 0.387154 cumulative IPC: 0.401307 (Simulation time: 1 hr 18 min 46 sec) 
Heartbeat CPU 0 instructions: 118000001 cycles: 200892031 heartbeat IPC: 0.398918 cumulative IPC: 0.401272 (Simulation time: 1 hr 19 min 13 sec) 
Heartbeat CPU 0 instructions: 119000000 cycles: 202888568 heartbeat IPC: 0.500867 cumulative IPC: 0.402432 (Simulation time: 1 hr 19 min 35 sec) 
Heartbeat CPU 0 instructions: 120000000 cycles: 205648362 heartbeat IPC: 0.362346 cumulative IPC: 0.401797 (Simulation time: 1 hr 19 min 59 sec) 
Heartbeat CPU 0 instructions: 121000001 cycles: 208305814 heartbeat IPC: 0.376301 cumulative IPC: 0.401414 (Simulation time: 1 hr 20 min 26 sec) 
Heartbeat CPU 0 instructions: 122000002 cycles: 211109732 heartbeat IPC: 0.356644 cumulative IPC: 0.400715 (Simulation time: 1 hr 20 min 50 sec) 
Heartbeat CPU 0 instructions: 123000001 cycles: 213782286 heartbeat IPC: 0.374174 cumulative IPC: 0.400326 (Simulation time: 1 hr 21 min 13 sec) 
Heartbeat CPU 0 instructions: 124000000 cycles: 216305448 heartbeat IPC: 0.396328 cumulative IPC: 0.400271 (Simulation time: 1 hr 21 min 37 sec) 
Heartbeat CPU 0 instructions: 125000003 cycles: 218240151 heartbeat IPC: 0.516877 cumulative IPC: 0.401479 (Simulation time: 1 hr 21 min 55 sec) 
Heartbeat CPU 0 instructions: 126000000 cycles: 220161889 heartbeat IPC: 0.520361 cumulative IPC: 0.40269 (Simulation time: 1 hr 22 min 15 sec) 
Heartbeat CPU 0 instructions: 127000001 cycles: 222533324 heartbeat IPC: 0.421686 cumulative IPC: 0.402925 (Simulation time: 1 hr 22 min 35 sec) 
Heartbeat CPU 0 instructions: 128000000 cycles: 224522837 heartbeat IPC: 0.502635 cumulative IPC: 0.403953 (Simulation time: 1 hr 22 min 54 sec) 
Heartbeat CPU 0 instructions: 129000000 cycles: 226445616 heartbeat IPC: 0.520081 cumulative IPC: 0.405098 (Simulation time: 1 hr 23 min 11 sec) 
Heartbeat CPU 0 instructions: 130000001 cycles: 229149980 heartbeat IPC: 0.369773 cumulative IPC: 0.404615 (Simulation time: 1 hr 23 min 31 sec) 
Heartbeat CPU 0 instructions: 131000003 cycles: 231826350 heartbeat IPC: 0.373641 cumulative IPC: 0.404201 (Simulation time: 1 hr 23 min 51 sec) 
Heartbeat CPU 0 instructions: 132000000 cycles: 234525055 heartbeat IPC: 0.370547 cumulative IPC: 0.403754 (Simulation time: 1 hr 24 min 12 sec) 
Heartbeat CPU 0 instructions: 133000002 cycles: 237416076 heartbeat IPC: 0.345899 cumulative IPC: 0.402942 (Simulation time: 1 hr 24 min 30 sec) 
Heartbeat CPU 0 instructions: 134000000 cycles: 240432949 heartbeat IPC: 0.331468 cumulative IPC: 0.40191 (Simulation time: 1 hr 24 min 51 sec) 
Heartbeat CPU 0 instructions: 135000002 cycles: 242978098 heartbeat IPC: 0.392905 cumulative IPC: 0.401802 (Simulation time: 1 hr 25 min 13 sec) 
Heartbeat CPU 0 instructions: 136000000 cycles: 245735572 heartbeat IPC: 0.36265 cumulative IPC: 0.401298 (Simulation time: 1 hr 25 min 32 sec) 
Heartbeat CPU 0 instructions: 137000003 cycles: 248499847 heartbeat IPC: 0.36176 cumulative IPC: 0.400794 (Simulation time: 1 hr 25 min 51 sec) 
Heartbeat CPU 0 instructions: 138000000 cycles: 251214014 heartbeat IPC: 0.368436 cumulative IPC: 0.400395 (Simulation time: 1 hr 26 min 10 sec) 
Heartbeat CPU 0 instructions: 139000001 cycles: 253463515 heartbeat IPC: 0.444543 cumulative IPC: 0.400842 (Simulation time: 1 hr 26 min 29 sec) 
Heartbeat CPU 0 instructions: 140000000 cycles: 256107037 heartbeat IPC: 0.378283 cumulative IPC: 0.400577 (Simulation time: 1 hr 26 min 49 sec) 
Heartbeat CPU 0 instructions: 141000000 cycles: 258870813 heartbeat IPC: 0.361824 cumulative IPC: 0.400106 (Simulation time: 1 hr 27 min 6 sec) 
Heartbeat CPU 0 instructions: 142000000 cycles: 261628032 heartbeat IPC: 0.362684 cumulative IPC: 0.399657 (Simulation time: 1 hr 27 min 22 sec) 
Heartbeat CPU 0 instructions: 143000000 cycles: 264275240 heartbeat IPC: 0.377756 cumulative IPC: 0.399408 (Simulation time: 1 hr 27 min 38 sec) 
Heartbeat CPU 0 instructions: 144000000 cycles: 266459884 heartbeat IPC: 0.45774 cumulative IPC: 0.399951 (Simulation time: 1 hr 27 min 53 sec) 
Heartbeat CPU 0 instructions: 145000002 cycles: 268671235 heartbeat IPC: 0.452213 cumulative IPC: 0.400438 (Simulation time: 1 hr 28 min 7 sec) 
Heartbeat CPU 0 instructions: 146000001 cycles: 270682229 heartbeat IPC: 0.497266 cumulative IPC: 0.401252 (Simulation time: 1 hr 28 min 20 sec) 
Heartbeat CPU 0 instructions: 147000001 cycles: 273364608 heartbeat IPC: 0.372803 cumulative IPC: 0.400936 (Simulation time: 1 hr 28 min 35 sec) 
Heartbeat CPU 0 instructions: 148000000 cycles: 275945271 heartbeat IPC: 0.387497 cumulative IPC: 0.400794 (Simulation time: 1 hr 28 min 50 sec) 
Heartbeat CPU 0 instructions: 149000000 cycles: 278601185 heartbeat IPC: 0.376518 cumulative IPC: 0.400534 (Simulation time: 1 hr 29 min 2 sec) 
Heartbeat CPU 0 instructions: 150000001 cycles: 281343684 heartbeat IPC: 0.364631 cumulative IPC: 0.40014 (Simulation time: 1 hr 29 min 14 sec) 
Finished CPU 0 instructions: 100000000 cycles: 249912765 cummulative IPC: 0.40014 (Simulation time: 1 hr 29 min 14 sec) 

ChampSim completed all CPUs

Region of Interest Statistics

CPU 0 cummulative IPC: 0.40014 instructions: 100000000 cycles: 249912765
LLC TOTAL     ACCESS:     694170  HIT:     591436  MISS:     102734
LLC LOAD      ACCESS:     325695  HIT:     320590  MISS:       5105
LLC RFO       ACCESS:      31879  HIT:      30384  MISS:       1495
LLC PREFETCH  ACCESS:     223577  HIT:     130215  MISS:      93362
LLC WRITEBACK ACCESS:     113019  HIT:     110247  MISS:       2772
