
*** ChampSim Multicore Out-of-Order Simulator ***

Warmup Instructions: 50000000
Simulation Instructions: 100000000
Configuration: 2
Number of CPUs: 1
LLC sets: 2048
LLC ways: 16
Off-chip DRAM Channels: 1 Width: 64-bit Data Rate: 1600 MT/s

CPU 0 runs /datasets/cs240c-wi22-a00-public/data/Assignment2-gz/zeusmp_600B.trace.gz
CPU 0 L1D next line prefetcher
CPU 0 L2C IP-based stride prefetcher
config 2, num_core 1, llc_sets 2048
Heartbeat CPU 0 instructions: 1000000 cycles: 407346 heartbeat IPC: 2.45492 cumulative IPC: 2.45492 (Simulation time: 0 hr 0 min 31 sec) 
Heartbeat CPU 0 instructions: 2000001 cycles: 814285 heartbeat IPC: 2.45737 cumulative IPC: 2.45614 (Simulation time: 0 hr 1 min 0 sec) 
Heartbeat CPU 0 instructions: 3000000 cycles: 1221756 heartbeat IPC: 2.45416 cumulative IPC: 2.45548 (Simulation time: 0 hr 1 min 31 sec) 
Heartbeat CPU 0 instructions: 4000000 cycles: 1629400 heartbeat IPC: 2.45312 cumulative IPC: 2.45489 (Simulation time: 0 hr 2 min 6 sec) 
Heartbeat CPU 0 instructions: 5000001 cycles: 2036965 heartbeat IPC: 2.4536 cumulative IPC: 2.45463 (Simulation time: 0 hr 2 min 32 sec) 
Heartbeat CPU 0 instructions: 6000000 cycles: 2444289 heartbeat IPC: 2.45505 cumulative IPC: 2.4547 (Simulation time: 0 hr 2 min 59 sec) 
Heartbeat CPU 0 instructions: 7000000 cycles: 2851767 heartbeat IPC: 2.45412 cumulative IPC: 2.45462 (Simulation time: 0 hr 3 min 28 sec) 
Heartbeat CPU 0 instructions: 8000000 cycles: 3259368 heartbeat IPC: 2.45338 cumulative IPC: 2.45446 (Simulation time: 0 hr 3 min 59 sec) 
Heartbeat CPU 0 instructions: 9000003 cycles: 3666428 heartbeat IPC: 2.45665 cumulative IPC: 2.45471 (Simulation time: 0 hr 4 min 32 sec) 
Heartbeat CPU 0 instructions: 10000001 cycles: 4073921 heartbeat IPC: 2.45403 cumulative IPC: 2.45464 (Simulation time: 0 hr 5 min 4 sec) 
Heartbeat CPU 0 instructions: 11000000 cycles: 4481287 heartbeat IPC: 2.45479 cumulative IPC: 2.45465 (Simulation time: 0 hr 5 min 33 sec) 
Heartbeat CPU 0 instructions: 12000000 cycles: 4888877 heartbeat IPC: 2.45345 cumulative IPC: 2.45455 (Simulation time: 0 hr 6 min 2 sec) 
Heartbeat CPU 0 instructions: 13000003 cycles: 5295998 heartbeat IPC: 2.45628 cumulative IPC: 2.45468 (Simulation time: 0 hr 6 min 31 sec) 
Heartbeat CPU 0 instructions: 14000001 cycles: 5703575 heartbeat IPC: 2.45352 cumulative IPC: 2.4546 (Simulation time: 0 hr 7 min 5 sec) 
Heartbeat CPU 0 instructions: 15000003 cycles: 6111229 heartbeat IPC: 2.45307 cumulative IPC: 2.4545 (Simulation time: 0 hr 7 min 35 sec) 
Heartbeat CPU 0 instructions: 16000000 cycles: 6519121 heartbeat IPC: 2.45162 cumulative IPC: 2.45432 (Simulation time: 0 hr 8 min 6 sec) 
Heartbeat CPU 0 instructions: 17000002 cycles: 6945391 heartbeat IPC: 2.34594 cumulative IPC: 2.44767 (Simulation time: 0 hr 8 min 33 sec) 
Heartbeat CPU 0 instructions: 18000000 cycles: 7402853 heartbeat IPC: 2.18597 cumulative IPC: 2.43149 (Simulation time: 0 hr 9 min 4 sec) 
Heartbeat CPU 0 instructions: 19000000 cycles: 7812599 heartbeat IPC: 2.44054 cumulative IPC: 2.43197 (Simulation time: 0 hr 9 min 34 sec) 
Heartbeat CPU 0 instructions: 20000000 cycles: 8225073 heartbeat IPC: 2.4244 cumulative IPC: 2.43159 (Simulation time: 0 hr 10 min 6 sec) 
Heartbeat CPU 0 instructions: 21000001 cycles: 8686430 heartbeat IPC: 2.16752 cumulative IPC: 2.41756 (Simulation time: 0 hr 10 min 36 sec) 
Heartbeat CPU 0 instructions: 22000000 cycles: 9108304 heartbeat IPC: 2.37037 cumulative IPC: 2.41538 (Simulation time: 0 hr 11 min 7 sec) 
Heartbeat CPU 0 instructions: 23000000 cycles: 9515118 heartbeat IPC: 2.45813 cumulative IPC: 2.41721 (Simulation time: 0 hr 11 min 36 sec) 
Heartbeat CPU 0 instructions: 24000000 cycles: 9968772 heartbeat IPC: 2.20432 cumulative IPC: 2.40752 (Simulation time: 0 hr 12 min 3 sec) 
Heartbeat CPU 0 instructions: 25000000 cycles: 10408153 heartbeat IPC: 2.27593 cumulative IPC: 2.40196 (Simulation time: 0 hr 12 min 37 sec) 
Heartbeat CPU 0 instructions: 26000000 cycles: 10815108 heartbeat IPC: 2.45727 cumulative IPC: 2.40404 (Simulation time: 0 hr 13 min 8 sec) 
Heartbeat CPU 0 instructions: 27000003 cycles: 11253183 heartbeat IPC: 2.28272 cumulative IPC: 2.39932 (Simulation time: 0 hr 13 min 37 sec) 
Heartbeat CPU 0 instructions: 28000000 cycles: 11711428 heartbeat IPC: 2.18223 cumulative IPC: 2.39083 (Simulation time: 0 hr 14 min 7 sec) 
Heartbeat CPU 0 instructions: 29000000 cycles: 12118976 heartbeat IPC: 2.4537 cumulative IPC: 2.39294 (Simulation time: 0 hr 14 min 34 sec) 
Heartbeat CPU 0 instructions: 30000002 cycles: 12541736 heartbeat IPC: 2.36541 cumulative IPC: 2.39201 (Simulation time: 0 hr 15 min 2 sec) 
Heartbeat CPU 0 instructions: 31000002 cycles: 13008121 heartbeat IPC: 2.14415 cumulative IPC: 2.38313 (Simulation time: 0 hr 15 min 31 sec) 
Heartbeat CPU 0 instructions: 32000000 cycles: 13426520 heartbeat IPC: 2.39006 cumulative IPC: 2.38334 (Simulation time: 0 hr 16 min 1 sec) 
Heartbeat CPU 0 instructions: 33000002 cycles: 13838071 heartbeat IPC: 2.42984 cumulative IPC: 2.38473 (Simulation time: 0 hr 16 min 27 sec) 
Heartbeat CPU 0 instructions: 34000000 cycles: 14301752 heartbeat IPC: 2.15665 cumulative IPC: 2.37733 (Simulation time: 0 hr 16 min 57 sec) 
Heartbeat CPU 0 instructions: 35000001 cycles: 14737981 heartbeat IPC: 2.29238 cumulative IPC: 2.37482 (Simulation time: 0 hr 17 min 27 sec) 
Heartbeat CPU 0 instructions: 36000000 cycles: 15145631 heartbeat IPC: 2.45308 cumulative IPC: 2.37692 (Simulation time: 0 hr 17 min 57 sec) 
Heartbeat CPU 0 instructions: 37000001 cycles: 15596571 heartbeat IPC: 2.21759 cumulative IPC: 2.37232 (Simulation time: 0 hr 18 min 24 sec) 
Heartbeat CPU 0 instructions: 38000001 cycles: 16052798 heartbeat IPC: 2.19189 cumulative IPC: 2.36719 (Simulation time: 0 hr 18 min 53 sec) 
Heartbeat CPU 0 instructions: 39000002 cycles: 16459935 heartbeat IPC: 2.45618 cumulative IPC: 2.36939 (Simulation time: 0 hr 19 min 19 sec) 
Heartbeat CPU 0 instructions: 40000000 cycles: 16894166 heartbeat IPC: 2.30292 cumulative IPC: 2.36768 (Simulation time: 0 hr 19 min 45 sec) 
Heartbeat CPU 0 instructions: 41000002 cycles: 17361902 heartbeat IPC: 2.13796 cumulative IPC: 2.36149 (Simulation time: 0 hr 20 min 11 sec) 
Heartbeat CPU 0 instructions: 42000000 cycles: 17776343 heartbeat IPC: 2.41288 cumulative IPC: 2.36269 (Simulation time: 0 hr 20 min 36 sec) 
Heartbeat CPU 0 instructions: 43000003 cycles: 18194786 heartbeat IPC: 2.38982 cumulative IPC: 2.36331 (Simulation time: 0 hr 21 min 3 sec) 
Heartbeat CPU 0 instructions: 44000000 cycles: 18662000 heartbeat IPC: 2.14034 cumulative IPC: 2.35773 (Simulation time: 0 hr 21 min 30 sec) 
Heartbeat CPU 0 instructions: 45000003 cycles: 19093747 heartbeat IPC: 2.31618 cumulative IPC: 2.35679 (Simulation time: 0 hr 21 min 57 sec) 
Heartbeat CPU 0 instructions: 46000003 cycles: 19502023 heartbeat IPC: 2.44932 cumulative IPC: 2.35873 (Simulation time: 0 hr 22 min 25 sec) 
Heartbeat CPU 0 instructions: 47000001 cycles: 19962516 heartbeat IPC: 2.17158 cumulative IPC: 2.35441 (Simulation time: 0 hr 22 min 52 sec) 
Heartbeat CPU 0 instructions: 48000000 cycles: 20413588 heartbeat IPC: 2.21694 cumulative IPC: 2.35137 (Simulation time: 0 hr 23 min 20 sec) 
Heartbeat CPU 0 instructions: 49000001 cycles: 20820438 heartbeat IPC: 2.45791 cumulative IPC: 2.35346 (Simulation time: 0 hr 23 min 46 sec) 
Heartbeat CPU 0 instructions: 50000000 cycles: 21265945 heartbeat IPC: 2.24463 cumulative IPC: 2.35118 (Simulation time: 0 hr 24 min 15 sec) 

Warmup complete CPU 0 instructions: 50000001 cycles: 21265946 (Simulation time: 0 hr 24 min 15 sec) 

Heartbeat CPU 0 instructions: 51000001 cycles: 22047349 heartbeat IPC: 1.27975 cumulative IPC: 1.27975 (Simulation time: 0 hr 24 min 46 sec) 
Heartbeat CPU 0 instructions: 52000000 cycles: 22817491 heartbeat IPC: 1.29846 cumulative IPC: 1.28904 (Simulation time: 0 hr 25 min 16 sec) 
Heartbeat CPU 0 instructions: 53000001 cycles: 23602778 heartbeat IPC: 1.27342 cumulative IPC: 1.28379 (Simulation time: 0 hr 25 min 53 sec) 
Heartbeat CPU 0 instructions: 54000000 cycles: 24383294 heartbeat IPC: 1.2812 cumulative IPC: 1.28314 (Simulation time: 0 hr 26 min 30 sec) 
Heartbeat CPU 0 instructions: 55000001 cycles: 25152743 heartbeat IPC: 1.29963 cumulative IPC: 1.28641 (Simulation time: 0 hr 27 min 2 sec) 
Heartbeat CPU 0 instructions: 56000000 cycles: 25927813 heartbeat IPC: 1.2902 cumulative IPC: 1.28704 (Simulation time: 0 hr 27 min 32 sec) 
Heartbeat CPU 0 instructions: 57000003 cycles: 26711396 heartbeat IPC: 1.27619 cumulative IPC: 1.28548 (Simulation time: 0 hr 28 min 1 sec) 
Heartbeat CPU 0 instructions: 58000001 cycles: 27477160 heartbeat IPC: 1.30588 cumulative IPC: 1.28799 (Simulation time: 0 hr 28 min 30 sec) 
Heartbeat CPU 0 instructions: 59000000 cycles: 28258265 heartbeat IPC: 1.28024 cumulative IPC: 1.28713 (Simulation time: 0 hr 28 min 59 sec) 
Heartbeat CPU 0 instructions: 60000000 cycles: 29033239 heartbeat IPC: 1.29037 cumulative IPC: 1.28745 (Simulation time: 0 hr 29 min 28 sec) 
Heartbeat CPU 0 instructions: 61000003 cycles: 29807598 heartbeat IPC: 1.29139 cumulative IPC: 1.28781 (Simulation time: 0 hr 29 min 59 sec) 
Heartbeat CPU 0 instructions: 62000001 cycles: 30584489 heartbeat IPC: 1.28718 cumulative IPC: 1.28776 (Simulation time: 0 hr 30 min 30 sec) 
Heartbeat CPU 0 instructions: 63000000 cycles: 31363735 heartbeat IPC: 1.28329 cumulative IPC: 1.28741 (Simulation time: 0 hr 31 min 7 sec) 
Heartbeat CPU 0 instructions: 64000000 cycles: 32136109 heartbeat IPC: 1.29471 cumulative IPC: 1.28793 (Simulation time: 0 hr 31 min 37 sec) 
Heartbeat CPU 0 instructions: 65000001 cycles: 32918535 heartbeat IPC: 1.27808 cumulative IPC: 1.28727 (Simulation time: 0 hr 32 min 9 sec) 
Heartbeat CPU 0 instructions: 66000000 cycles: 33702762 heartbeat IPC: 1.27514 cumulative IPC: 1.2865 (Simulation time: 0 hr 32 min 41 sec) 
Heartbeat CPU 0 instructions: 67000001 cycles: 34489026 heartbeat IPC: 1.27184 cumulative IPC: 1.28563 (Simulation time: 0 hr 33 min 12 sec) 
Heartbeat CPU 0 instructions: 68000000 cycles: 35263115 heartbeat IPC: 1.29184 cumulative IPC: 1.28597 (Simulation time: 0 hr 33 min 45 sec) 
Heartbeat CPU 0 instructions: 69000002 cycles: 36054560 heartbeat IPC: 1.26351 cumulative IPC: 1.28477 (Simulation time: 0 hr 34 min 22 sec) 
Heartbeat CPU 0 instructions: 70000000 cycles: 36835545 heartbeat IPC: 1.28043 cumulative IPC: 1.28455 (Simulation time: 0 hr 34 min 53 sec) 
Heartbeat CPU 0 instructions: 71000001 cycles: 37618031 heartbeat IPC: 1.27798 cumulative IPC: 1.28424 (Simulation time: 0 hr 35 min 26 sec) 
Heartbeat CPU 0 instructions: 72000000 cycles: 38397888 heartbeat IPC: 1.28229 cumulative IPC: 1.28415 (Simulation time: 0 hr 35 min 57 sec) 
Heartbeat CPU 0 instructions: 73000003 cycles: 39171782 heartbeat IPC: 1.29217 cumulative IPC: 1.2845 (Simulation time: 0 hr 36 min 30 sec) 
Heartbeat CPU 0 instructions: 74000002 cycles: 39947325 heartbeat IPC: 1.28942 cumulative IPC: 1.2847 (Simulation time: 0 hr 36 min 58 sec) 
Heartbeat CPU 0 instructions: 75000003 cycles: 40724649 heartbeat IPC: 1.28647 cumulative IPC: 1.28477 (Simulation time: 0 hr 37 min 31 sec) 
Heartbeat CPU 0 instructions: 76000000 cycles: 41501828 heartbeat IPC: 1.2867 cumulative IPC: 1.28485 (Simulation time: 0 hr 38 min 2 sec) 
Heartbeat CPU 0 instructions: 77000000 cycles: 42280132 heartbeat IPC: 1.28484 cumulative IPC: 1.28485 (Simulation time: 0 hr 38 min 33 sec) 
Heartbeat CPU 0 instructions: 78000003 cycles: 43062751 heartbeat IPC: 1.27776 cumulative IPC: 1.28459 (Simulation time: 0 hr 39 min 11 sec) 
Heartbeat CPU 0 instructions: 79000000 cycles: 43843737 heartbeat IPC: 1.28043 cumulative IPC: 1.28445 (Simulation time: 0 hr 39 min 41 sec) 
Heartbeat CPU 0 instructions: 80000000 cycles: 44618790 heartbeat IPC: 1.29023 cumulative IPC: 1.28464 (Simulation time: 0 hr 40 min 10 sec) 
Heartbeat CPU 0 instructions: 81000002 cycles: 45396565 heartbeat IPC: 1.28572 cumulative IPC: 1.28467 (Simulation time: 0 hr 40 min 37 sec) 
Heartbeat CPU 0 instructions: 82000002 cycles: 46172118 heartbeat IPC: 1.2894 cumulative IPC: 1.28482 (Simulation time: 0 hr 41 min 7 sec) 
Heartbeat CPU 0 instructions: 83000001 cycles: 46942010 heartbeat IPC: 1.29888 cumulative IPC: 1.28524 (Simulation time: 0 hr 41 min 41 sec) 
Heartbeat CPU 0 instructions: 84000000 cycles: 47723992 heartbeat IPC: 1.2788 cumulative IPC: 1.28505 (Simulation time: 0 hr 42 min 12 sec) 
Heartbeat CPU 0 instructions: 85000002 cycles: 48507115 heartbeat IPC: 1.27694 cumulative IPC: 1.28482 (Simulation time: 0 hr 42 min 42 sec) 
Heartbeat CPU 0 instructions: 86000002 cycles: 49281182 heartbeat IPC: 1.29188 cumulative IPC: 1.28502 (Simulation time: 0 hr 43 min 11 sec) 
Heartbeat CPU 0 instructions: 87000000 cycles: 50058449 heartbeat IPC: 1.28656 cumulative IPC: 1.28506 (Simulation time: 0 hr 43 min 42 sec) 
Heartbeat CPU 0 instructions: 88000000 cycles: 50835731 heartbeat IPC: 1.28653 cumulative IPC: 1.2851 (Simulation time: 0 hr 44 min 13 sec) 
Heartbeat CPU 0 instructions: 89000002 cycles: 51611602 heartbeat IPC: 1.28888 cumulative IPC: 1.28519 (Simulation time: 0 hr 44 min 41 sec) 
Heartbeat CPU 0 instructions: 90000002 cycles: 52380447 heartbeat IPC: 1.30065 cumulative IPC: 1.28557 (Simulation time: 0 hr 45 min 9 sec) 
Heartbeat CPU 0 instructions: 91000001 cycles: 53156408 heartbeat IPC: 1.28872 cumulative IPC: 1.28565 (Simulation time: 0 hr 45 min 37 sec) 
Heartbeat CPU 0 instructions: 92000000 cycles: 53940717 heartbeat IPC: 1.27501 cumulative IPC: 1.2854 (Simulation time: 0 hr 46 min 5 sec) 
Heartbeat CPU 0 instructions: 93000000 cycles: 54708965 heartbeat IPC: 1.30166 cumulative IPC: 1.28577 (Simulation time: 0 hr 46 min 32 sec) 
Heartbeat CPU 0 instructions: 94000002 cycles: 55486101 heartbeat IPC: 1.28678 cumulative IPC: 1.28579 (Simulation time: 0 hr 46 min 59 sec) 
Heartbeat CPU 0 instructions: 95000001 cycles: 56265619 heartbeat IPC: 1.28284 cumulative IPC: 1.28573 (Simulation time: 0 hr 47 min 28 sec) 
Heartbeat CPU 0 instructions: 96000000 cycles: 57041396 heartbeat IPC: 1.28903 cumulative IPC: 1.2858 (Simulation time: 0 hr 47 min 56 sec) 
Heartbeat CPU 0 instructions: 97000003 cycles: 57810053 heartbeat IPC: 1.30097 cumulative IPC: 1.28612 (Simulation time: 0 hr 48 min 23 sec) 
Heartbeat CPU 0 instructions: 98000002 cycles: 58600207 heartbeat IPC: 1.26557 cumulative IPC: 1.28568 (Simulation time: 0 hr 48 min 53 sec) 
Heartbeat CPU 0 instructions: 99000000 cycles: 59394215 heartbeat IPC: 1.25943 cumulative IPC: 1.28514 (Simulation time: 0 hr 49 min 22 sec) 
Heartbeat CPU 0 instructions: 100000000 cycles: 60164205 heartbeat IPC: 1.29872 cumulative IPC: 1.2854 (Simulation time: 0 hr 49 min 51 sec) 
Heartbeat CPU 0 instructions: 101000002 cycles: 60930362 heartbeat IPC: 1.30522 cumulative IPC: 1.28579 (Simulation time: 0 hr 50 min 21 sec) 
Heartbeat CPU 0 instructions: 102000002 cycles: 61712366 heartbeat IPC: 1.27877 cumulative IPC: 1.28565 (Simulation time: 0 hr 50 min 51 sec) 
Heartbeat CPU 0 instructions: 103000001 cycles: 62490029 heartbeat IPC: 1.2859 cumulative IPC: 1.28566 (Simulation time: 0 hr 51 min 22 sec) 
Heartbeat CPU 0 instructions: 104000000 cycles: 63267323 heartbeat IPC: 1.28651 cumulative IPC: 1.28567 (Simulation time: 0 hr 51 min 53 sec) 
Heartbeat CPU 0 instructions: 105000001 cycles: 64047685 heartbeat IPC: 1.28146 cumulative IPC: 1.2856 (Simulation time: 0 hr 52 min 22 sec) 
Heartbeat CPU 0 instructions: 106000000 cycles: 64826713 heartbeat IPC: 1.28365 cumulative IPC: 1.28556 (Simulation time: 0 hr 52 min 51 sec) 
Heartbeat CPU 0 instructions: 107000000 cycles: 65602763 heartbeat IPC: 1.28858 cumulative IPC: 1.28561 (Simulation time: 0 hr 53 min 22 sec) 
Heartbeat CPU 0 instructions: 108000000 cycles: 66386947 heartbeat IPC: 1.27521 cumulative IPC: 1.28543 (Simulation time: 0 hr 53 min 58 sec) 
Heartbeat CPU 0 instructions: 109000000 cycles: 67170485 heartbeat IPC: 1.27626 cumulative IPC: 1.28528 (Simulation time: 0 hr 54 min 30 sec) 
Heartbeat CPU 0 instructions: 110000002 cycles: 67947252 heartbeat IPC: 1.28739 cumulative IPC: 1.28531 (Simulation time: 0 hr 55 min 0 sec) 
Heartbeat CPU 0 instructions: 111000000 cycles: 68724868 heartbeat IPC: 1.28598 cumulative IPC: 1.28532 (Simulation time: 0 hr 55 min 29 sec) 
Heartbeat CPU 0 instructions: 112000000 cycles: 69504693 heartbeat IPC: 1.28234 cumulative IPC: 1.28527 (Simulation time: 0 hr 56 min 4 sec) 
Heartbeat CPU 0 instructions: 113000003 cycles: 70284204 heartbeat IPC: 1.28286 cumulative IPC: 1.28524 (Simulation time: 0 hr 56 min 32 sec) 
Heartbeat CPU 0 instructions: 114000000 cycles: 71059820 heartbeat IPC: 1.28929 cumulative IPC: 1.2853 (Simulation time: 0 hr 57 min 3 sec) 
Heartbeat CPU 0 instructions: 115000000 cycles: 71836836 heartbeat IPC: 1.28697 cumulative IPC: 1.28532 (Simulation time: 0 hr 57 min 36 sec) 
Heartbeat CPU 0 instructions: 116000000 cycles: 72614161 heartbeat IPC: 1.28646 cumulative IPC: 1.28534 (Simulation time: 0 hr 58 min 8 sec) 
Heartbeat CPU 0 instructions: 117000000 cycles: 73386835 heartbeat IPC: 1.29421 cumulative IPC: 1.28547 (Simulation time: 0 hr 58 min 39 sec) 
Heartbeat CPU 0 instructions: 118000000 cycles: 74171920 heartbeat IPC: 1.27375 cumulative IPC: 1.2853 (Simulation time: 0 hr 59 min 11 sec) 
Heartbeat CPU 0 instructions: 119000000 cycles: 74943951 heartbeat IPC: 1.29528 cumulative IPC: 1.28544 (Simulation time: 0 hr 59 min 46 sec) 
Heartbeat CPU 0 instructions: 120000000 cycles: 75724092 heartbeat IPC: 1.28182 cumulative IPC: 1.28539 (Simulation time: 1 hr 0 min 17 sec) 
Heartbeat CPU 0 instructions: 121000000 cycles: 76498310 heartbeat IPC: 1.29163 cumulative IPC: 1.28548 (Simulation time: 1 hr 0 min 54 sec) 
Heartbeat CPU 0 instructions: 122000003 cycles: 77267146 heartbeat IPC: 1.30067 cumulative IPC: 1.28569 (Simulation time: 1 hr 1 min 24 sec) 
Heartbeat CPU 0 instructions: 123000001 cycles: 78046123 heartbeat IPC: 1.28373 cumulative IPC: 1.28566 (Simulation time: 1 hr 1 min 51 sec) 
Heartbeat CPU 0 instructions: 124000000 cycles: 78821453 heartbeat IPC: 1.28977 cumulative IPC: 1.28572 (Simulation time: 1 hr 2 min 20 sec) 
Heartbeat CPU 0 instructions: 125000001 cycles: 79602680 heartbeat IPC: 1.28004 cumulative IPC: 1.28564 (Simulation time: 1 hr 2 min 50 sec) 
Heartbeat CPU 0 instructions: 126000003 cycles: 80381977 heartbeat IPC: 1.28321 cumulative IPC: 1.28561 (Simulation time: 1 hr 3 min 20 sec) 
Heartbeat CPU 0 instructions: 127000003 cycles: 81156811 heartbeat IPC: 1.2906 cumulative IPC: 1.28567 (Simulation time: 1 hr 3 min 50 sec) 
Heartbeat CPU 0 instructions: 128000000 cycles: 81928358 heartbeat IPC: 1.29609 cumulative IPC: 1.2858 (Simulation time: 1 hr 4 min 18 sec) 
Heartbeat CPU 0 instructions: 129000002 cycles: 82699682 heartbeat IPC: 1.29647 cumulative IPC: 1.28594 (Simulation time: 1 hr 4 min 49 sec) 
Heartbeat CPU 0 instructions: 130000003 cycles: 83476319 heartbeat IPC: 1.2876 cumulative IPC: 1.28596 (Simulation time: 1 hr 5 min 17 sec) 
Heartbeat CPU 0 instructions: 131000003 cycles: 84255613 heartbeat IPC: 1.28321 cumulative IPC: 1.28593 (Simulation time: 1 hr 5 min 52 sec) 
Heartbeat CPU 0 instructions: 132000000 cycles: 85031433 heartbeat IPC: 1.28895 cumulative IPC: 1.28596 (Simulation time: 1 hr 6 min 27 sec) 
Heartbeat CPU 0 instructions: 133000001 cycles: 85807517 heartbeat IPC: 1.28852 cumulative IPC: 1.28599 (Simulation time: 1 hr 6 min 59 sec) 
Heartbeat CPU 0 instructions: 134000003 cycles: 86589142 heartbeat IPC: 1.27939 cumulative IPC: 1.28591 (Simulation time: 1 hr 7 min 31 sec) 
Heartbeat CPU 0 instructions: 135000003 cycles: 87360334 heartbeat IPC: 1.29669 cumulative IPC: 1.28604 (Simulation time: 1 hr 7 min 59 sec) 
Heartbeat CPU 0 instructions: 136000000 cycles: 88138931 heartbeat IPC: 1.28436 cumulative IPC: 1.28602 (Simulation time: 1 hr 8 min 28 sec) 
Heartbeat CPU 0 instructions: 137000003 cycles: 88911605 heartbeat IPC: 1.29421 cumulative IPC: 1.28611 (Simulation time: 1 hr 8 min 57 sec) 
Heartbeat CPU 0 instructions: 138000000 cycles: 89675898 heartbeat IPC: 1.30839 cumulative IPC: 1.28636 (Simulation time: 1 hr 9 min 24 sec) 
Heartbeat CPU 0 instructions: 139000000 cycles: 90455807 heartbeat IPC: 1.2822 cumulative IPC: 1.28632 (Simulation time: 1 hr 9 min 51 sec) 
Heartbeat CPU 0 instructions: 140000000 cycles: 91237087 heartbeat IPC: 1.27995 cumulative IPC: 1.28624 (Simulation time: 1 hr 10 min 21 sec) 
Heartbeat CPU 0 instructions: 141000000 cycles: 92013060 heartbeat IPC: 1.2887 cumulative IPC: 1.28627 (Simulation time: 1 hr 10 min 48 sec) 
Heartbeat CPU 0 instructions: 142000003 cycles: 92784954 heartbeat IPC: 1.29552 cumulative IPC: 1.28637 (Simulation time: 1 hr 11 min 15 sec) 
Heartbeat CPU 0 instructions: 143000001 cycles: 93566779 heartbeat IPC: 1.27906 cumulative IPC: 1.28629 (Simulation time: 1 hr 11 min 42 sec) 
Heartbeat CPU 0 instructions: 144000000 cycles: 94343676 heartbeat IPC: 1.28717 cumulative IPC: 1.2863 (Simulation time: 1 hr 12 min 12 sec) 
Heartbeat CPU 0 instructions: 145000001 cycles: 95119404 heartbeat IPC: 1.28911 cumulative IPC: 1.28633 (Simulation time: 1 hr 12 min 41 sec) 
Heartbeat CPU 0 instructions: 146000000 cycles: 95897734 heartbeat IPC: 1.2848 cumulative IPC: 1.28632 (Simulation time: 1 hr 13 min 14 sec) 
Heartbeat CPU 0 instructions: 147000000 cycles: 96672254 heartbeat IPC: 1.29112 cumulative IPC: 1.28636 (Simulation time: 1 hr 13 min 47 sec) 
Heartbeat CPU 0 instructions: 148000000 cycles: 97448698 heartbeat IPC: 1.28792 cumulative IPC: 1.28638 (Simulation time: 1 hr 14 min 13 sec) 
Heartbeat CPU 0 instructions: 149000001 cycles: 98222830 heartbeat IPC: 1.29177 cumulative IPC: 1.28643 (Simulation time: 1 hr 14 min 38 sec) 
Heartbeat CPU 0 instructions: 150000000 cycles: 99001751 heartbeat IPC: 1.28383 cumulative IPC: 1.28641 (Simulation time: 1 hr 15 min 5 sec) 
Finished CPU 0 instructions: 100000003 cycles: 77735806 cummulative IPC: 1.28641 (Simulation time: 1 hr 15 min 5 sec) 

ChampSim completed all CPUs

Region of Interest Statistics

CPU 0 cummulative IPC: 1.28641 instructions: 100000003 cycles: 77735806
LLC TOTAL     ACCESS:     381302  HIT:       4941  MISS:     376361
LLC LOAD      ACCESS:      29324  HIT:        601  MISS:      28723
LLC RFO       ACCESS:          0  HIT:          0  MISS:          0
LLC PREFETCH  ACCESS:     288220  HIT:       3331  MISS:     284889
LLC WRITEBACK ACCESS:      63758  HIT:       1009  MISS:      62749
