
*** ChampSim Multicore Out-of-Order Simulator ***

Warmup Instructions: 50000000
Simulation Instructions: 100000000
Configuration: 2
Number of CPUs: 1
LLC sets: 2048
LLC ways: 16
Off-chip DRAM Channels: 1 Width: 64-bit Data Rate: 1600 MT/s

CPU 0 runs /datasets/cs240c-wi22-a00-public/data/Assignment2-gz/soplex_66B.trace.gz
CPU 0 L1D next line prefetcher
CPU 0 L2C IP-based stride prefetcher
config 2, num_core 1, llc_sets 2048
Heartbeat CPU 0 instructions: 1000003 cycles: 415144 heartbeat IPC: 2.40881 cumulative IPC: 2.40881 (Simulation time: 0 hr 0 min 33 sec) 
Heartbeat CPU 0 instructions: 2000003 cycles: 837678 heartbeat IPC: 2.36667 cumulative IPC: 2.38756 (Simulation time: 0 hr 1 min 5 sec) 
Heartbeat CPU 0 instructions: 3000003 cycles: 1243373 heartbeat IPC: 2.46491 cumulative IPC: 2.41279 (Simulation time: 0 hr 1 min 36 sec) 
Heartbeat CPU 0 instructions: 4000000 cycles: 1627492 heartbeat IPC: 2.60335 cumulative IPC: 2.45777 (Simulation time: 0 hr 2 min 5 sec) 
Heartbeat CPU 0 instructions: 5000000 cycles: 2039085 heartbeat IPC: 2.42958 cumulative IPC: 2.45208 (Simulation time: 0 hr 2 min 35 sec) 
Heartbeat CPU 0 instructions: 6000000 cycles: 2510940 heartbeat IPC: 2.1193 cumulative IPC: 2.38954 (Simulation time: 0 hr 3 min 5 sec) 
Heartbeat CPU 0 instructions: 7000002 cycles: 2883573 heartbeat IPC: 2.68361 cumulative IPC: 2.42754 (Simulation time: 0 hr 3 min 40 sec) 
Heartbeat CPU 0 instructions: 8000000 cycles: 3309319 heartbeat IPC: 2.34881 cumulative IPC: 2.41742 (Simulation time: 0 hr 4 min 17 sec) 
Heartbeat CPU 0 instructions: 9000001 cycles: 3747907 heartbeat IPC: 2.28005 cumulative IPC: 2.40134 (Simulation time: 0 hr 4 min 50 sec) 
Heartbeat CPU 0 instructions: 10000002 cycles: 4160092 heartbeat IPC: 2.4261 cumulative IPC: 2.40379 (Simulation time: 0 hr 5 min 21 sec) 
Heartbeat CPU 0 instructions: 11000001 cycles: 4571384 heartbeat IPC: 2.43136 cumulative IPC: 2.40627 (Simulation time: 0 hr 5 min 53 sec) 
Heartbeat CPU 0 instructions: 12000000 cycles: 4955326 heartbeat IPC: 2.60456 cumulative IPC: 2.42164 (Simulation time: 0 hr 6 min 22 sec) 
Heartbeat CPU 0 instructions: 13000003 cycles: 5356615 heartbeat IPC: 2.49198 cumulative IPC: 2.42691 (Simulation time: 0 hr 6 min 52 sec) 
Heartbeat CPU 0 instructions: 14000002 cycles: 5846238 heartbeat IPC: 2.04239 cumulative IPC: 2.3947 (Simulation time: 0 hr 7 min 24 sec) 
Heartbeat CPU 0 instructions: 15000003 cycles: 6220656 heartbeat IPC: 2.67081 cumulative IPC: 2.41132 (Simulation time: 0 hr 7 min 56 sec) 
Heartbeat CPU 0 instructions: 16000000 cycles: 6628842 heartbeat IPC: 2.44986 cumulative IPC: 2.41369 (Simulation time: 0 hr 8 min 31 sec) 
Heartbeat CPU 0 instructions: 17000001 cycles: 7082868 heartbeat IPC: 2.20252 cumulative IPC: 2.40016 (Simulation time: 0 hr 9 min 2 sec) 
Heartbeat CPU 0 instructions: 18000003 cycles: 7491999 heartbeat IPC: 2.44421 cumulative IPC: 2.40256 (Simulation time: 0 hr 9 min 34 sec) 
Heartbeat CPU 0 instructions: 19000002 cycles: 7910161 heartbeat IPC: 2.39142 cumulative IPC: 2.40197 (Simulation time: 0 hr 10 min 9 sec) 
Heartbeat CPU 0 instructions: 20000000 cycles: 8294131 heartbeat IPC: 2.60436 cumulative IPC: 2.41134 (Simulation time: 0 hr 10 min 37 sec) 
Heartbeat CPU 0 instructions: 21000000 cycles: 8690755 heartbeat IPC: 2.52128 cumulative IPC: 2.41636 (Simulation time: 0 hr 11 min 8 sec) 
Heartbeat CPU 0 instructions: 22000000 cycles: 9187983 heartbeat IPC: 2.01115 cumulative IPC: 2.39443 (Simulation time: 0 hr 11 min 38 sec) 
Heartbeat CPU 0 instructions: 23000002 cycles: 9561053 heartbeat IPC: 2.68047 cumulative IPC: 2.40559 (Simulation time: 0 hr 12 min 6 sec) 
Heartbeat CPU 0 instructions: 24000000 cycles: 9952342 heartbeat IPC: 2.55565 cumulative IPC: 2.41149 (Simulation time: 0 hr 12 min 36 sec) 
Heartbeat CPU 0 instructions: 25000003 cycles: 10430585 heartbeat IPC: 2.09099 cumulative IPC: 2.3968 (Simulation time: 0 hr 13 min 8 sec) 
Heartbeat CPU 0 instructions: 26000001 cycles: 10829313 heartbeat IPC: 2.50797 cumulative IPC: 2.40089 (Simulation time: 0 hr 13 min 41 sec) 
Heartbeat CPU 0 instructions: 27000002 cycles: 11247326 heartbeat IPC: 2.39227 cumulative IPC: 2.40057 (Simulation time: 0 hr 14 min 16 sec) 
Heartbeat CPU 0 instructions: 28000000 cycles: 11631514 heartbeat IPC: 2.60289 cumulative IPC: 2.40725 (Simulation time: 0 hr 14 min 41 sec) 
Heartbeat CPU 0 instructions: 29000000 cycles: 12023214 heartbeat IPC: 2.55297 cumulative IPC: 2.412 (Simulation time: 0 hr 15 min 7 sec) 
Heartbeat CPU 0 instructions: 30000003 cycles: 12526938 heartbeat IPC: 1.98522 cumulative IPC: 2.39484 (Simulation time: 0 hr 15 min 38 sec) 
Heartbeat CPU 0 instructions: 31000001 cycles: 12898954 heartbeat IPC: 2.68805 cumulative IPC: 2.4033 (Simulation time: 0 hr 16 min 8 sec) 
Heartbeat CPU 0 instructions: 32000000 cycles: 13278748 heartbeat IPC: 2.633 cumulative IPC: 2.40987 (Simulation time: 0 hr 16 min 38 sec) 
Heartbeat CPU 0 instructions: 33000002 cycles: 13701600 heartbeat IPC: 2.3649 cumulative IPC: 2.40848 (Simulation time: 0 hr 17 min 11 sec) 
Heartbeat CPU 0 instructions: 34000003 cycles: 14113130 heartbeat IPC: 2.42996 cumulative IPC: 2.4091 (Simulation time: 0 hr 17 min 42 sec) 
Heartbeat CPU 0 instructions: 35000003 cycles: 14523805 heartbeat IPC: 2.43502 cumulative IPC: 2.40984 (Simulation time: 0 hr 18 min 15 sec) 
Heartbeat CPU 0 instructions: 36000000 cycles: 14907558 heartbeat IPC: 2.60583 cumulative IPC: 2.41488 (Simulation time: 0 hr 18 min 40 sec) 
Heartbeat CPU 0 instructions: 37000000 cycles: 15309625 heartbeat IPC: 2.48715 cumulative IPC: 2.41678 (Simulation time: 0 hr 19 min 9 sec) 
Heartbeat CPU 0 instructions: 38000000 cycles: 15799586 heartbeat IPC: 2.04098 cumulative IPC: 2.40513 (Simulation time: 0 hr 19 min 38 sec) 
Heartbeat CPU 0 instructions: 39000002 cycles: 16170889 heartbeat IPC: 2.69322 cumulative IPC: 2.41174 (Simulation time: 0 hr 20 min 6 sec) 
Heartbeat CPU 0 instructions: 40000000 cycles: 16579825 heartbeat IPC: 2.44537 cumulative IPC: 2.41257 (Simulation time: 0 hr 20 min 39 sec) 
Heartbeat CPU 0 instructions: 41000001 cycles: 17034301 heartbeat IPC: 2.20034 cumulative IPC: 2.40691 (Simulation time: 0 hr 21 min 9 sec) 
Heartbeat CPU 0 instructions: 42000000 cycles: 17443271 heartbeat IPC: 2.44516 cumulative IPC: 2.40781 (Simulation time: 0 hr 21 min 39 sec) 
Heartbeat CPU 0 instructions: 43000000 cycles: 17861708 heartbeat IPC: 2.38985 cumulative IPC: 2.40738 (Simulation time: 0 hr 22 min 12 sec) 
Heartbeat CPU 0 instructions: 44000000 cycles: 18245423 heartbeat IPC: 2.6061 cumulative IPC: 2.41156 (Simulation time: 0 hr 22 min 37 sec) 
Heartbeat CPU 0 instructions: 45000003 cycles: 18641615 heartbeat IPC: 2.52404 cumulative IPC: 2.41395 (Simulation time: 0 hr 23 min 3 sec) 
Heartbeat CPU 0 instructions: 46000001 cycles: 19140921 heartbeat IPC: 2.00278 cumulative IPC: 2.40323 (Simulation time: 0 hr 23 min 30 sec) 
Heartbeat CPU 0 instructions: 47000001 cycles: 19514986 heartbeat IPC: 2.67333 cumulative IPC: 2.40841 (Simulation time: 0 hr 23 min 57 sec) 
Heartbeat CPU 0 instructions: 48000000 cycles: 19904935 heartbeat IPC: 2.56444 cumulative IPC: 2.41146 (Simulation time: 0 hr 24 min 25 sec) 
Heartbeat CPU 0 instructions: 49000000 cycles: 20560885 heartbeat IPC: 1.52451 cumulative IPC: 2.38317 (Simulation time: 0 hr 25 min 4 sec) 
Heartbeat CPU 0 instructions: 50000003 cycles: 21086283 heartbeat IPC: 1.90332 cumulative IPC: 2.37121 (Simulation time: 0 hr 25 min 41 sec) 

Warmup complete CPU 0 instructions: 50000003 cycles: 21086283 (Simulation time: 0 hr 25 min 41 sec) 

Heartbeat CPU 0 instructions: 51000002 cycles: 23511623 heartbeat IPC: 0.412313 cumulative IPC: 0.412313 (Simulation time: 0 hr 26 min 35 sec) 
Heartbeat CPU 0 instructions: 52000000 cycles: 27852801 heartbeat IPC: 0.230352 cumulative IPC: 0.295573 (Simulation time: 0 hr 27 min 26 sec) 
Heartbeat CPU 0 instructions: 53000000 cycles: 30780495 heartbeat IPC: 0.341566 cumulative IPC: 0.309463 (Simulation time: 0 hr 28 min 10 sec) 
Heartbeat CPU 0 instructions: 54000000 cycles: 33386816 heartbeat IPC: 0.383683 cumulative IPC: 0.325189 (Simulation time: 0 hr 28 min 55 sec) 
Heartbeat CPU 0 instructions: 55000002 cycles: 36863402 heartbeat IPC: 0.287639 cumulative IPC: 0.316915 (Simulation time: 0 hr 29 min 36 sec) 
Heartbeat CPU 0 instructions: 56000000 cycles: 40359170 heartbeat IPC: 0.28606 cumulative IPC: 0.311318 (Simulation time: 0 hr 30 min 19 sec) 
Heartbeat CPU 0 instructions: 57000003 cycles: 42975139 heartbeat IPC: 0.382269 cumulative IPC: 0.319797 (Simulation time: 0 hr 30 min 55 sec) 
Heartbeat CPU 0 instructions: 58000000 cycles: 45222917 heartbeat IPC: 0.444882 cumulative IPC: 0.331446 (Simulation time: 0 hr 31 min 36 sec) 
Heartbeat CPU 0 instructions: 59000002 cycles: 46755314 heartbeat IPC: 0.652574 cumulative IPC: 0.350617 (Simulation time: 0 hr 32 min 15 sec) 
Heartbeat CPU 0 instructions: 60000000 cycles: 48012593 heartbeat IPC: 0.795367 cumulative IPC: 0.371384 (Simulation time: 0 hr 32 min 46 sec) 
Heartbeat CPU 0 instructions: 61000002 cycles: 50849371 heartbeat IPC: 0.352513 cumulative IPC: 0.369585 (Simulation time: 0 hr 33 min 30 sec) 
Heartbeat CPU 0 instructions: 62000002 cycles: 53546981 heartbeat IPC: 0.370699 cumulative IPC: 0.369678 (Simulation time: 0 hr 34 min 17 sec) 
Heartbeat CPU 0 instructions: 63000002 cycles: 55625344 heartbeat IPC: 0.481148 cumulative IPC: 0.376385 (Simulation time: 0 hr 35 min 3 sec) 
Heartbeat CPU 0 instructions: 64000000 cycles: 58012352 heartbeat IPC: 0.418934 cumulative IPC: 0.379136 (Simulation time: 0 hr 35 min 38 sec) 
Heartbeat CPU 0 instructions: 65000000 cycles: 62318072 heartbeat IPC: 0.232249 cumulative IPC: 0.363797 (Simulation time: 0 hr 36 min 29 sec) 
Heartbeat CPU 0 instructions: 66000001 cycles: 63804177 heartbeat IPC: 0.672901 cumulative IPC: 0.37455 (Simulation time: 0 hr 36 min 55 sec) 
Heartbeat CPU 0 instructions: 67000000 cycles: 65249508 heartbeat IPC: 0.691882 cumulative IPC: 0.384936 (Simulation time: 0 hr 37 min 24 sec) 
Heartbeat CPU 0 instructions: 68000000 cycles: 68706437 heartbeat IPC: 0.289274 cumulative IPC: 0.377991 (Simulation time: 0 hr 38 min 5 sec) 
Heartbeat CPU 0 instructions: 69000000 cycles: 71191081 heartbeat IPC: 0.402472 cumulative IPC: 0.379205 (Simulation time: 0 hr 38 min 35 sec) 
Heartbeat CPU 0 instructions: 70000003 cycles: 73617843 heartbeat IPC: 0.412073 cumulative IPC: 0.380724 (Simulation time: 0 hr 39 min 7 sec) 
Heartbeat CPU 0 instructions: 71000000 cycles: 76108846 heartbeat IPC: 0.401444 cumulative IPC: 0.381662 (Simulation time: 0 hr 39 min 51 sec) 
Heartbeat CPU 0 instructions: 72000000 cycles: 78881392 heartbeat IPC: 0.360679 cumulative IPC: 0.380655 (Simulation time: 0 hr 40 min 27 sec) 
Heartbeat CPU 0 instructions: 73000001 cycles: 82056139 heartbeat IPC: 0.314986 cumulative IPC: 0.377236 (Simulation time: 0 hr 41 min 14 sec) 
Heartbeat CPU 0 instructions: 74000000 cycles: 84112604 heartbeat IPC: 0.486271 cumulative IPC: 0.380793 (Simulation time: 0 hr 41 min 43 sec) 
Heartbeat CPU 0 instructions: 75000002 cycles: 85486678 heartbeat IPC: 0.727764 cumulative IPC: 0.388196 (Simulation time: 0 hr 42 min 8 sec) 
Heartbeat CPU 0 instructions: 76000000 cycles: 88696901 heartbeat IPC: 0.311504 cumulative IPC: 0.384555 (Simulation time: 0 hr 42 min 48 sec) 
Heartbeat CPU 0 instructions: 77000000 cycles: 91118716 heartbeat IPC: 0.412913 cumulative IPC: 0.385536 (Simulation time: 0 hr 43 min 20 sec) 
Heartbeat CPU 0 instructions: 78000003 cycles: 93650171 heartbeat IPC: 0.395031 cumulative IPC: 0.385867 (Simulation time: 0 hr 43 min 55 sec) 
Heartbeat CPU 0 instructions: 79000001 cycles: 96683263 heartbeat IPC: 0.329696 cumulative IPC: 0.383613 (Simulation time: 0 hr 44 min 39 sec) 
Heartbeat CPU 0 instructions: 80000000 cycles: 99158479 heartbeat IPC: 0.404005 cumulative IPC: 0.38426 (Simulation time: 0 hr 45 min 15 sec) 
Heartbeat CPU 0 instructions: 81000003 cycles: 102045362 heartbeat IPC: 0.346395 cumulative IPC: 0.38291 (Simulation time: 0 hr 45 min 56 sec) 
Heartbeat CPU 0 instructions: 82000000 cycles: 103779825 heartbeat IPC: 0.576546 cumulative IPC: 0.386971 (Simulation time: 0 hr 46 min 22 sec) 
Heartbeat CPU 0 instructions: 83000001 cycles: 105103003 heartbeat IPC: 0.755757 cumulative IPC: 0.392779 (Simulation time: 0 hr 46 min 47 sec) 
Heartbeat CPU 0 instructions: 84000000 cycles: 108218392 heartbeat IPC: 0.320987 cumulative IPC: 0.390212 (Simulation time: 0 hr 47 min 26 sec) 
Heartbeat CPU 0 instructions: 85000002 cycles: 110640129 heartbeat IPC: 0.412928 cumulative IPC: 0.390826 (Simulation time: 0 hr 47 min 56 sec) 
Heartbeat CPU 0 instructions: 86000000 cycles: 113266058 heartbeat IPC: 0.380817 cumulative IPC: 0.390541 (Simulation time: 0 hr 48 min 27 sec) 
Heartbeat CPU 0 instructions: 87000000 cycles: 116048326 heartbeat IPC: 0.359419 cumulative IPC: 0.389629 (Simulation time: 0 hr 49 min 10 sec) 
Heartbeat CPU 0 instructions: 88000000 cycles: 118190143 heartbeat IPC: 0.466893 cumulative IPC: 0.391334 (Simulation time: 0 hr 49 min 45 sec) 
Heartbeat CPU 0 instructions: 89000001 cycles: 121428666 heartbeat IPC: 0.308783 cumulative IPC: 0.388669 (Simulation time: 0 hr 50 min 26 sec) 
Heartbeat CPU 0 instructions: 90000002 cycles: 122768122 heartbeat IPC: 0.746572 cumulative IPC: 0.393384 (Simulation time: 0 hr 50 min 54 sec) 
Heartbeat CPU 0 instructions: 91000000 cycles: 124168122 heartbeat IPC: 0.714284 cumulative IPC: 0.397742 (Simulation time: 0 hr 51 min 23 sec) 
Heartbeat CPU 0 instructions: 92000000 cycles: 127156739 heartbeat IPC: 0.334603 cumulative IPC: 0.395963 (Simulation time: 0 hr 52 min 0 sec) 
Heartbeat CPU 0 instructions: 93000000 cycles: 129774292 heartbeat IPC: 0.382036 cumulative IPC: 0.395628 (Simulation time: 0 hr 52 min 32 sec) 
Heartbeat CPU 0 instructions: 94000001 cycles: 132322793 heartbeat IPC: 0.392388 cumulative IPC: 0.395554 (Simulation time: 0 hr 53 min 3 sec) 
Heartbeat CPU 0 instructions: 95000003 cycles: 135271273 heartbeat IPC: 0.339158 cumulative IPC: 0.394097 (Simulation time: 0 hr 53 min 46 sec) 
Heartbeat CPU 0 instructions: 96000000 cycles: 137171127 heartbeat IPC: 0.526355 cumulative IPC: 0.396262 (Simulation time: 0 hr 54 min 24 sec) 
Heartbeat CPU 0 instructions: 97000003 cycles: 140249799 heartbeat IPC: 0.324816 cumulative IPC: 0.394416 (Simulation time: 0 hr 55 min 1 sec) 
Heartbeat CPU 0 instructions: 98000003 cycles: 141581185 heartbeat IPC: 0.751097 cumulative IPC: 0.398357 (Simulation time: 0 hr 55 min 25 sec) 
Heartbeat CPU 0 instructions: 99000000 cycles: 143854241 heartbeat IPC: 0.439935 cumulative IPC: 0.399127 (Simulation time: 0 hr 55 min 58 sec) 
Heartbeat CPU 0 instructions: 100000000 cycles: 146417478 heartbeat IPC: 0.390132 cumulative IPC: 0.398943 (Simulation time: 0 hr 56 min 32 sec) 
Heartbeat CPU 0 instructions: 101000001 cycles: 148994146 heartbeat IPC: 0.388099 cumulative IPC: 0.398724 (Simulation time: 0 hr 57 min 8 sec) 
Heartbeat CPU 0 instructions: 102000002 cycles: 151704987 heartbeat IPC: 0.36889 cumulative IPC: 0.398105 (Simulation time: 0 hr 57 min 43 sec) 
Heartbeat CPU 0 instructions: 103000002 cycles: 154595927 heartbeat IPC: 0.345908 cumulative IPC: 0.396975 (Simulation time: 0 hr 58 min 25 sec) 
Heartbeat CPU 0 instructions: 104000000 cycles: 156786558 heartbeat IPC: 0.456489 cumulative IPC: 0.397936 (Simulation time: 0 hr 59 min 6 sec) 
Heartbeat CPU 0 instructions: 105000000 cycles: 159192555 heartbeat IPC: 0.415628 cumulative IPC: 0.398244 (Simulation time: 0 hr 59 min 38 sec) 
Heartbeat CPU 0 instructions: 106000001 cycles: 160518628 heartbeat IPC: 0.754107 cumulative IPC: 0.401628 (Simulation time: 1 hr 0 min 6 sec) 
Heartbeat CPU 0 instructions: 107000001 cycles: 163328784 heartbeat IPC: 0.355852 cumulative IPC: 0.400724 (Simulation time: 1 hr 0 min 44 sec) 
Heartbeat CPU 0 instructions: 108000000 cycles: 165548383 heartbeat IPC: 0.450531 cumulative IPC: 0.401489 (Simulation time: 1 hr 1 min 15 sec) 
Heartbeat CPU 0 instructions: 109000003 cycles: 168180857 heartbeat IPC: 0.379872 cumulative IPC: 0.401102 (Simulation time: 1 hr 1 min 46 sec) 
Heartbeat CPU 0 instructions: 110000001 cycles: 171063652 heartbeat IPC: 0.346885 cumulative IPC: 0.40006 (Simulation time: 1 hr 2 min 22 sec) 
Heartbeat CPU 0 instructions: 111000001 cycles: 173024690 heartbeat IPC: 0.509934 cumulative IPC: 0.401478 (Simulation time: 1 hr 2 min 53 sec) 
Heartbeat CPU 0 instructions: 112000000 cycles: 175039412 heartbeat IPC: 0.496346 cumulative IPC: 0.40272 (Simulation time: 1 hr 3 min 31 sec) 
Heartbeat CPU 0 instructions: 113000000 cycles: 177713674 heartbeat IPC: 0.373935 cumulative IPC: 0.402228 (Simulation time: 1 hr 4 min 7 sec) 
Heartbeat CPU 0 instructions: 114000000 cycles: 179036437 heartbeat IPC: 0.755993 cumulative IPC: 0.405191 (Simulation time: 1 hr 4 min 34 sec) 
Heartbeat CPU 0 instructions: 115000003 cycles: 181726548 heartbeat IPC: 0.371733 cumulative IPC: 0.404631 (Simulation time: 1 hr 5 min 10 sec) 
Heartbeat CPU 0 instructions: 116000000 cycles: 183961629 heartbeat IPC: 0.44741 cumulative IPC: 0.405218 (Simulation time: 1 hr 5 min 43 sec) 
Heartbeat CPU 0 instructions: 117000000 cycles: 186599273 heartbeat IPC: 0.379126 cumulative IPC: 0.404802 (Simulation time: 1 hr 6 min 15 sec) 
Heartbeat CPU 0 instructions: 118000003 cycles: 189565216 heartbeat IPC: 0.337162 cumulative IPC: 0.403611 (Simulation time: 1 hr 6 min 54 sec) 
Heartbeat CPU 0 instructions: 119000002 cycles: 191394092 heartbeat IPC: 0.546783 cumulative IPC: 0.405149 (Simulation time: 1 hr 7 min 26 sec) 
Heartbeat CPU 0 instructions: 120000000 cycles: 193360386 heartbeat IPC: 0.50857 cumulative IPC: 0.406329 (Simulation time: 1 hr 8 min 1 sec) 
Heartbeat CPU 0 instructions: 121000000 cycles: 196171242 heartbeat IPC: 0.355764 cumulative IPC: 0.405517 (Simulation time: 1 hr 8 min 37 sec) 
Heartbeat CPU 0 instructions: 122000000 cycles: 197496639 heartbeat IPC: 0.754491 cumulative IPC: 0.408139 (Simulation time: 1 hr 9 min 2 sec) 
Heartbeat CPU 0 instructions: 123000000 cycles: 200051132 heartbeat IPC: 0.391467 cumulative IPC: 0.407901 (Simulation time: 1 hr 9 min 31 sec) 
Heartbeat CPU 0 instructions: 124000000 cycles: 202451113 heartbeat IPC: 0.41667 cumulative IPC: 0.408017 (Simulation time: 1 hr 10 min 2 sec) 
Heartbeat CPU 0 instructions: 125000001 cycles: 205036532 heartbeat IPC: 0.386785 cumulative IPC: 0.407719 (Simulation time: 1 hr 10 min 32 sec) 
Heartbeat CPU 0 instructions: 126000000 cycles: 207808510 heartbeat IPC: 0.360753 cumulative IPC: 0.407022 (Simulation time: 1 hr 11 min 6 sec) 
Heartbeat CPU 0 instructions: 127000002 cycles: 210567851 heartbeat IPC: 0.362406 cumulative IPC: 0.406372 (Simulation time: 1 hr 11 min 43 sec) 
Heartbeat CPU 0 instructions: 128000000 cycles: 212905319 heartbeat IPC: 0.427812 cumulative IPC: 0.406633 (Simulation time: 1 hr 12 min 18 sec) 
Heartbeat CPU 0 instructions: 129000000 cycles: 215105099 heartbeat IPC: 0.454591 cumulative IPC: 0.407177 (Simulation time: 1 hr 12 min 47 sec) 
Heartbeat CPU 0 instructions: 130000000 cycles: 216428363 heartbeat IPC: 0.755707 cumulative IPC: 0.409538 (Simulation time: 1 hr 13 min 12 sec) 
Heartbeat CPU 0 instructions: 131000000 cycles: 219279217 heartbeat IPC: 0.350772 cumulative IPC: 0.408693 (Simulation time: 1 hr 13 min 45 sec) 
Heartbeat CPU 0 instructions: 132000000 cycles: 221638993 heartbeat IPC: 0.423769 cumulative IPC: 0.40887 (Simulation time: 1 hr 14 min 13 sec) 
Heartbeat CPU 0 instructions: 133000000 cycles: 224258046 heartbeat IPC: 0.381817 cumulative IPC: 0.408521 (Simulation time: 1 hr 14 min 40 sec) 
Heartbeat CPU 0 instructions: 134000001 cycles: 227286063 heartbeat IPC: 0.330249 cumulative IPC: 0.407372 (Simulation time: 1 hr 15 min 14 sec) 
Heartbeat CPU 0 instructions: 135000003 cycles: 229196158 heartbeat IPC: 0.523535 cumulative IPC: 0.408438 (Simulation time: 1 hr 15 min 41 sec) 
Heartbeat CPU 0 instructions: 136000000 cycles: 231205065 heartbeat IPC: 0.497782 cumulative IPC: 0.409292 (Simulation time: 1 hr 16 min 11 sec) 
Heartbeat CPU 0 instructions: 137000000 cycles: 233904281 heartbeat IPC: 0.370478 cumulative IPC: 0.4088 (Simulation time: 1 hr 16 min 37 sec) 
Heartbeat CPU 0 instructions: 138000000 cycles: 235225069 heartbeat IPC: 0.757124 cumulative IPC: 0.410948 (Simulation time: 1 hr 16 min 55 sec) 
Heartbeat CPU 0 instructions: 139000001 cycles: 237904091 heartbeat IPC: 0.373271 cumulative IPC: 0.410483 (Simulation time: 1 hr 17 min 19 sec) 
Heartbeat CPU 0 instructions: 140000000 cycles: 240137728 heartbeat IPC: 0.4477 cumulative IPC: 0.410862 (Simulation time: 1 hr 17 min 42 sec) 
Heartbeat CPU 0 instructions: 141000003 cycles: 242764478 heartbeat IPC: 0.3807 cumulative IPC: 0.410505 (Simulation time: 1 hr 18 min 3 sec) 
Heartbeat CPU 0 instructions: 142000001 cycles: 245664175 heartbeat IPC: 0.344863 cumulative IPC: 0.409657 (Simulation time: 1 hr 18 min 28 sec) 
Heartbeat CPU 0 instructions: 143000002 cycles: 250323651 heartbeat IPC: 0.214617 cumulative IPC: 0.405693 (Simulation time: 1 hr 18 min 57 sec) 
Heartbeat CPU 0 instructions: 144000000 cycles: 254383307 heartbeat IPC: 0.246326 cumulative IPC: 0.40292 (Simulation time: 1 hr 19 min 25 sec) 
Heartbeat CPU 0 instructions: 145000001 cycles: 257379876 heartbeat IPC: 0.333715 cumulative IPC: 0.402042 (Simulation time: 1 hr 19 min 53 sec) 
Heartbeat CPU 0 instructions: 146000000 cycles: 261546060 heartbeat IPC: 0.240028 cumulative IPC: 0.399235 (Simulation time: 1 hr 20 min 20 sec) 
Heartbeat CPU 0 instructions: 147000000 cycles: 264222109 heartbeat IPC: 0.373685 cumulative IPC: 0.398954 (Simulation time: 1 hr 20 min 46 sec) 
Heartbeat CPU 0 instructions: 148000000 cycles: 267367852 heartbeat IPC: 0.31789 cumulative IPC: 0.397919 (Simulation time: 1 hr 21 min 12 sec) 
Heartbeat CPU 0 instructions: 149000000 cycles: 270664983 heartbeat IPC: 0.303294 cumulative IPC: 0.396668 (Simulation time: 1 hr 21 min 33 sec) 
Heartbeat CPU 0 instructions: 150000001 cycles: 273632117 heartbeat IPC: 0.337026 cumulative IPC: 0.395968 (Simulation time: 1 hr 21 min 55 sec) 
Finished CPU 0 instructions: 100000001 cycles: 252545838 cummulative IPC: 0.395968 (Simulation time: 1 hr 21 min 55 sec) 

ChampSim completed all CPUs

Region of Interest Statistics

CPU 0 cummulative IPC: 0.395968 instructions: 100000001 cycles: 252545838
LLC TOTAL     ACCESS:    6721345  HIT:    2965920  MISS:    3755425
LLC LOAD      ACCESS:    1685835  HIT:     767072  MISS:     918763
LLC RFO       ACCESS:     736902  HIT:     306408  MISS:     430494
LLC PREFETCH  ACCESS:    2658479  HIT:     910595  MISS:    1747884
LLC WRITEBACK ACCESS:    1640129  HIT:     981845  MISS:     658284
