
*** ChampSim Multicore Out-of-Order Simulator ***

Warmup Instructions: 50000000
Simulation Instructions: 100000000
Configuration: 2
Number of CPUs: 1
LLC sets: 2048
LLC ways: 16
Off-chip DRAM Channels: 1 Width: 64-bit Data Rate: 1600 MT/s

CPU 0 runs /datasets/cs240c-wi22-a00-public/data/Assignment2-gz/mcf_250B.trace.gz
CPU 0 L1D next line prefetcher
CPU 0 L2C IP-based stride prefetcher
config 2, num_core 1, llc_sets 2048
Heartbeat CPU 0 instructions: 1000000 cycles: 536024 heartbeat IPC: 1.86559 cumulative IPC: 1.86559 (Simulation time: 0 hr 0 min 48 sec) 
Heartbeat CPU 0 instructions: 2000003 cycles: 1050419 heartbeat IPC: 1.94404 cumulative IPC: 1.904 (Simulation time: 0 hr 1 min 32 sec) 
Heartbeat CPU 0 instructions: 3000002 cycles: 1546669 heartbeat IPC: 2.01511 cumulative IPC: 1.93965 (Simulation time: 0 hr 2 min 17 sec) 
Heartbeat CPU 0 instructions: 4000000 cycles: 2057083 heartbeat IPC: 1.95919 cumulative IPC: 1.9445 (Simulation time: 0 hr 2 min 55 sec) 
Heartbeat CPU 0 instructions: 5000002 cycles: 2562212 heartbeat IPC: 1.9797 cumulative IPC: 1.95144 (Simulation time: 0 hr 3 min 41 sec) 
Heartbeat CPU 0 instructions: 6000002 cycles: 3066518 heartbeat IPC: 1.98292 cumulative IPC: 1.95662 (Simulation time: 0 hr 4 min 27 sec) 
Heartbeat CPU 0 instructions: 7000002 cycles: 3603536 heartbeat IPC: 1.86213 cumulative IPC: 1.94254 (Simulation time: 0 hr 5 min 14 sec) 
Heartbeat CPU 0 instructions: 8000000 cycles: 4117323 heartbeat IPC: 1.94633 cumulative IPC: 1.94301 (Simulation time: 0 hr 5 min 58 sec) 
Heartbeat CPU 0 instructions: 9000002 cycles: 4630556 heartbeat IPC: 1.94844 cumulative IPC: 1.94361 (Simulation time: 0 hr 6 min 43 sec) 
Heartbeat CPU 0 instructions: 10000000 cycles: 5140505 heartbeat IPC: 1.96098 cumulative IPC: 1.94533 (Simulation time: 0 hr 7 min 40 sec) 
Heartbeat CPU 0 instructions: 11000001 cycles: 5651414 heartbeat IPC: 1.9573 cumulative IPC: 1.94642 (Simulation time: 0 hr 8 min 32 sec) 
Heartbeat CPU 0 instructions: 12000000 cycles: 6183271 heartbeat IPC: 1.8802 cumulative IPC: 1.94072 (Simulation time: 0 hr 9 min 24 sec) 
Heartbeat CPU 0 instructions: 13000001 cycles: 6701722 heartbeat IPC: 1.92882 cumulative IPC: 1.9398 (Simulation time: 0 hr 10 min 11 sec) 
Heartbeat CPU 0 instructions: 14000003 cycles: 7212933 heartbeat IPC: 1.95614 cumulative IPC: 1.94096 (Simulation time: 0 hr 11 min 3 sec) 
Heartbeat CPU 0 instructions: 15000002 cycles: 7724322 heartbeat IPC: 1.95546 cumulative IPC: 1.94192 (Simulation time: 0 hr 11 min 50 sec) 
Heartbeat CPU 0 instructions: 16000000 cycles: 8232091 heartbeat IPC: 1.9694 cumulative IPC: 1.94361 (Simulation time: 0 hr 12 min 39 sec) 
Heartbeat CPU 0 instructions: 17000000 cycles: 8742262 heartbeat IPC: 1.96013 cumulative IPC: 1.94458 (Simulation time: 0 hr 13 min 27 sec) 
Heartbeat CPU 0 instructions: 18000002 cycles: 9250358 heartbeat IPC: 1.96814 cumulative IPC: 1.94587 (Simulation time: 0 hr 14 min 16 sec) 
Heartbeat CPU 0 instructions: 19000001 cycles: 9760752 heartbeat IPC: 1.95927 cumulative IPC: 1.94657 (Simulation time: 0 hr 15 min 1 sec) 
Heartbeat CPU 0 instructions: 20000000 cycles: 10270290 heartbeat IPC: 1.96256 cumulative IPC: 1.94736 (Simulation time: 0 hr 15 min 45 sec) 
Heartbeat CPU 0 instructions: 21000001 cycles: 10775791 heartbeat IPC: 1.97824 cumulative IPC: 1.94881 (Simulation time: 0 hr 16 min 29 sec) 
Heartbeat CPU 0 instructions: 22000000 cycles: 11278889 heartbeat IPC: 1.98768 cumulative IPC: 1.95055 (Simulation time: 0 hr 17 min 11 sec) 
Heartbeat CPU 0 instructions: 23000003 cycles: 11785979 heartbeat IPC: 1.97204 cumulative IPC: 1.95147 (Simulation time: 0 hr 17 min 58 sec) 
Heartbeat CPU 0 instructions: 24000000 cycles: 12291585 heartbeat IPC: 1.97782 cumulative IPC: 1.95256 (Simulation time: 0 hr 18 min 37 sec) 
Heartbeat CPU 0 instructions: 25000002 cycles: 12799423 heartbeat IPC: 1.96914 cumulative IPC: 1.95321 (Simulation time: 0 hr 19 min 20 sec) 
Heartbeat CPU 0 instructions: 26000000 cycles: 13311115 heartbeat IPC: 1.9543 cumulative IPC: 1.95325 (Simulation time: 0 hr 20 min 1 sec) 
Heartbeat CPU 0 instructions: 27000003 cycles: 13823877 heartbeat IPC: 1.95023 cumulative IPC: 1.95314 (Simulation time: 0 hr 20 min 44 sec) 
Heartbeat CPU 0 instructions: 28000000 cycles: 14336217 heartbeat IPC: 1.95182 cumulative IPC: 1.9531 (Simulation time: 0 hr 21 min 28 sec) 
Heartbeat CPU 0 instructions: 29000000 cycles: 14849329 heartbeat IPC: 1.94889 cumulative IPC: 1.95295 (Simulation time: 0 hr 22 min 12 sec) 
Heartbeat CPU 0 instructions: 30000000 cycles: 15361909 heartbeat IPC: 1.95091 cumulative IPC: 1.95288 (Simulation time: 0 hr 22 min 51 sec) 
Heartbeat CPU 0 instructions: 31000000 cycles: 15873682 heartbeat IPC: 1.95399 cumulative IPC: 1.95292 (Simulation time: 0 hr 23 min 34 sec) 
Heartbeat CPU 0 instructions: 32000000 cycles: 16380312 heartbeat IPC: 1.97383 cumulative IPC: 1.95356 (Simulation time: 0 hr 24 min 14 sec) 
Heartbeat CPU 0 instructions: 33000002 cycles: 16891580 heartbeat IPC: 1.95593 cumulative IPC: 1.95364 (Simulation time: 0 hr 24 min 54 sec) 
Heartbeat CPU 0 instructions: 34000000 cycles: 17403756 heartbeat IPC: 1.95245 cumulative IPC: 1.9536 (Simulation time: 0 hr 25 min 36 sec) 
Heartbeat CPU 0 instructions: 35000000 cycles: 17926581 heartbeat IPC: 1.91269 cumulative IPC: 1.95241 (Simulation time: 0 hr 26 min 22 sec) 
Heartbeat CPU 0 instructions: 36000000 cycles: 18454219 heartbeat IPC: 1.89524 cumulative IPC: 1.95077 (Simulation time: 0 hr 27 min 1 sec) 
Heartbeat CPU 0 instructions: 37000002 cycles: 18965787 heartbeat IPC: 1.95478 cumulative IPC: 1.95088 (Simulation time: 0 hr 27 min 41 sec) 
Heartbeat CPU 0 instructions: 38000000 cycles: 19477484 heartbeat IPC: 1.95428 cumulative IPC: 1.95097 (Simulation time: 0 hr 28 min 22 sec) 
Heartbeat CPU 0 instructions: 39000002 cycles: 19989188 heartbeat IPC: 1.95426 cumulative IPC: 1.95105 (Simulation time: 0 hr 29 min 0 sec) 
Heartbeat CPU 0 instructions: 40000000 cycles: 20502105 heartbeat IPC: 1.94963 cumulative IPC: 1.95102 (Simulation time: 0 hr 29 min 41 sec) 
Heartbeat CPU 0 instructions: 41000000 cycles: 21015014 heartbeat IPC: 1.94966 cumulative IPC: 1.95099 (Simulation time: 0 hr 30 min 20 sec) 
Heartbeat CPU 0 instructions: 42000001 cycles: 21528916 heartbeat IPC: 1.9459 cumulative IPC: 1.95086 (Simulation time: 0 hr 31 min 0 sec) 
Heartbeat CPU 0 instructions: 43000000 cycles: 22040032 heartbeat IPC: 1.9565 cumulative IPC: 1.951 (Simulation time: 0 hr 31 min 42 sec) 
Heartbeat CPU 0 instructions: 44000000 cycles: 22551435 heartbeat IPC: 1.9554 cumulative IPC: 1.9511 (Simulation time: 0 hr 32 min 24 sec) 
Heartbeat CPU 0 instructions: 45000001 cycles: 23063586 heartbeat IPC: 1.95255 cumulative IPC: 1.95113 (Simulation time: 0 hr 33 min 6 sec) 
Heartbeat CPU 0 instructions: 46000002 cycles: 23576183 heartbeat IPC: 1.95085 cumulative IPC: 1.95112 (Simulation time: 0 hr 33 min 50 sec) 
Heartbeat CPU 0 instructions: 47000002 cycles: 24088898 heartbeat IPC: 1.9504 cumulative IPC: 1.95111 (Simulation time: 0 hr 34 min 40 sec) 
Heartbeat CPU 0 instructions: 48000000 cycles: 24601310 heartbeat IPC: 1.95155 cumulative IPC: 1.95112 (Simulation time: 0 hr 35 min 23 sec) 
Heartbeat CPU 0 instructions: 49000000 cycles: 25113736 heartbeat IPC: 1.9515 cumulative IPC: 1.95112 (Simulation time: 0 hr 36 min 8 sec) 
Heartbeat CPU 0 instructions: 50000002 cycles: 25625402 heartbeat IPC: 1.9544 cumulative IPC: 1.95119 (Simulation time: 0 hr 36 min 50 sec) 

Warmup complete CPU 0 instructions: 50000002 cycles: 25625402 (Simulation time: 0 hr 36 min 50 sec) 

Heartbeat CPU 0 instructions: 51000002 cycles: 34764161 heartbeat IPC: 0.109424 cumulative IPC: 0.109424 (Simulation time: 0 hr 37 min 49 sec) 
Heartbeat CPU 0 instructions: 52000000 cycles: 43937096 heartbeat IPC: 0.109016 cumulative IPC: 0.10922 (Simulation time: 0 hr 38 min 52 sec) 
Heartbeat CPU 0 instructions: 53000000 cycles: 53098285 heartbeat IPC: 0.109156 cumulative IPC: 0.109199 (Simulation time: 0 hr 39 min 57 sec) 
Heartbeat CPU 0 instructions: 54000000 cycles: 62092440 heartbeat IPC: 0.111183 cumulative IPC: 0.109688 (Simulation time: 0 hr 40 min 59 sec) 
Heartbeat CPU 0 instructions: 55000000 cycles: 71131050 heartbeat IPC: 0.110636 cumulative IPC: 0.109876 (Simulation time: 0 hr 41 min 58 sec) 
Heartbeat CPU 0 instructions: 56000000 cycles: 80161842 heartbeat IPC: 0.110732 cumulative IPC: 0.110018 (Simulation time: 0 hr 43 min 0 sec) 
Heartbeat CPU 0 instructions: 57000000 cycles: 89385216 heartbeat IPC: 0.10842 cumulative IPC: 0.109787 (Simulation time: 0 hr 44 min 2 sec) 
Heartbeat CPU 0 instructions: 58000000 cycles: 98452755 heartbeat IPC: 0.110284 cumulative IPC: 0.109849 (Simulation time: 0 hr 45 min 2 sec) 
Heartbeat CPU 0 instructions: 59000001 cycles: 107570673 heartbeat IPC: 0.109674 cumulative IPC: 0.109829 (Simulation time: 0 hr 46 min 3 sec) 
Heartbeat CPU 0 instructions: 60000000 cycles: 116611847 heartbeat IPC: 0.110605 cumulative IPC: 0.109906 (Simulation time: 0 hr 46 min 59 sec) 
Heartbeat CPU 0 instructions: 61000002 cycles: 125635049 heartbeat IPC: 0.110826 cumulative IPC: 0.109989 (Simulation time: 0 hr 47 min 59 sec) 
Heartbeat CPU 0 instructions: 62000000 cycles: 133265632 heartbeat IPC: 0.131051 cumulative IPC: 0.111482 (Simulation time: 0 hr 48 min 53 sec) 
Heartbeat CPU 0 instructions: 63000001 cycles: 141908060 heartbeat IPC: 0.115708 cumulative IPC: 0.111797 (Simulation time: 0 hr 49 min 50 sec) 
Heartbeat CPU 0 instructions: 64000000 cycles: 150769390 heartbeat IPC: 0.11285 cumulative IPC: 0.111871 (Simulation time: 0 hr 50 min 50 sec) 
Heartbeat CPU 0 instructions: 65000000 cycles: 159268718 heartbeat IPC: 0.117656 cumulative IPC: 0.112239 (Simulation time: 0 hr 51 min 47 sec) 
Heartbeat CPU 0 instructions: 66000000 cycles: 168035111 heartbeat IPC: 0.114072 cumulative IPC: 0.112352 (Simulation time: 0 hr 52 min 44 sec) 
Heartbeat CPU 0 instructions: 67000001 cycles: 177035806 heartbeat IPC: 0.111103 cumulative IPC: 0.112278 (Simulation time: 0 hr 53 min 45 sec) 
Heartbeat CPU 0 instructions: 68000000 cycles: 186214762 heartbeat IPC: 0.108945 cumulative IPC: 0.112087 (Simulation time: 0 hr 54 min 49 sec) 
Heartbeat CPU 0 instructions: 69000000 cycles: 195088305 heartbeat IPC: 0.112695 cumulative IPC: 0.112119 (Simulation time: 0 hr 55 min 45 sec) 
Heartbeat CPU 0 instructions: 70000000 cycles: 203811055 heartbeat IPC: 0.114643 cumulative IPC: 0.112242 (Simulation time: 0 hr 56 min 44 sec) 
Heartbeat CPU 0 instructions: 71000000 cycles: 212494454 heartbeat IPC: 0.115162 cumulative IPC: 0.112378 (Simulation time: 0 hr 57 min 43 sec) 
Heartbeat CPU 0 instructions: 72000000 cycles: 221232252 heartbeat IPC: 0.114445 cumulative IPC: 0.11247 (Simulation time: 0 hr 58 min 44 sec) 
Heartbeat CPU 0 instructions: 73000000 cycles: 230056957 heartbeat IPC: 0.113318 cumulative IPC: 0.112507 (Simulation time: 0 hr 59 min 52 sec) 
Heartbeat CPU 0 instructions: 74000001 cycles: 239129446 heartbeat IPC: 0.110223 cumulative IPC: 0.11241 (Simulation time: 1 hr 0 min 56 sec) 
Heartbeat CPU 0 instructions: 75000002 cycles: 247812250 heartbeat IPC: 0.11517 cumulative IPC: 0.112518 (Simulation time: 1 hr 2 min 1 sec) 
Heartbeat CPU 0 instructions: 76000000 cycles: 256529310 heartbeat IPC: 0.114717 cumulative IPC: 0.112601 (Simulation time: 1 hr 3 min 3 sec) 
Heartbeat CPU 0 instructions: 77000003 cycles: 270335486 heartbeat IPC: 0.0724316 cumulative IPC: 0.110335 (Simulation time: 1 hr 4 min 11 sec) 
Heartbeat CPU 0 instructions: 78000000 cycles: 279784669 heartbeat IPC: 0.105829 cumulative IPC: 0.110167 (Simulation time: 1 hr 5 min 20 sec) 
Heartbeat CPU 0 instructions: 79000000 cycles: 288571613 heartbeat IPC: 0.113805 cumulative IPC: 0.110289 (Simulation time: 1 hr 6 min 18 sec) 
Heartbeat CPU 0 instructions: 80000000 cycles: 297144500 heartbeat IPC: 0.116647 cumulative IPC: 0.110489 (Simulation time: 1 hr 7 min 25 sec) 
Heartbeat CPU 0 instructions: 81000001 cycles: 305749292 heartbeat IPC: 0.116214 cumulative IPC: 0.110665 (Simulation time: 1 hr 8 min 28 sec) 
Heartbeat CPU 0 instructions: 82000001 cycles: 313839846 heartbeat IPC: 0.123601 cumulative IPC: 0.111028 (Simulation time: 1 hr 9 min 20 sec) 
Heartbeat CPU 0 instructions: 83000002 cycles: 321412526 heartbeat IPC: 0.132054 cumulative IPC: 0.111567 (Simulation time: 1 hr 10 min 11 sec) 
Heartbeat CPU 0 instructions: 84000000 cycles: 328839703 heartbeat IPC: 0.13464 cumulative IPC: 0.112132 (Simulation time: 1 hr 11 min 0 sec) 
Heartbeat CPU 0 instructions: 85000000 cycles: 336613046 heartbeat IPC: 0.128645 cumulative IPC: 0.112545 (Simulation time: 1 hr 11 min 50 sec) 
Heartbeat CPU 0 instructions: 86000001 cycles: 344348672 heartbeat IPC: 0.129272 cumulative IPC: 0.112951 (Simulation time: 1 hr 12 min 41 sec) 
Heartbeat CPU 0 instructions: 87000001 cycles: 357415799 heartbeat IPC: 0.0765279 cumulative IPC: 0.111516 (Simulation time: 1 hr 13 min 54 sec) 
Heartbeat CPU 0 instructions: 88000000 cycles: 367022116 heartbeat IPC: 0.104098 cumulative IPC: 0.111307 (Simulation time: 1 hr 14 min 48 sec) 
Heartbeat CPU 0 instructions: 89000001 cycles: 375067970 heartbeat IPC: 0.124288 cumulative IPC: 0.111606 (Simulation time: 1 hr 15 min 35 sec) 
Heartbeat CPU 0 instructions: 90000001 cycles: 381777005 heartbeat IPC: 0.149053 cumulative IPC: 0.112312 (Simulation time: 1 hr 16 min 16 sec) 
Heartbeat CPU 0 instructions: 91000000 cycles: 391245546 heartbeat IPC: 0.105613 cumulative IPC: 0.112138 (Simulation time: 1 hr 16 min 59 sec) 
Heartbeat CPU 0 instructions: 92000000 cycles: 399038853 heartbeat IPC: 0.128315 cumulative IPC: 0.112476 (Simulation time: 1 hr 17 min 38 sec) 
Heartbeat CPU 0 instructions: 93000000 cycles: 408205568 heartbeat IPC: 0.10909 cumulative IPC: 0.112395 (Simulation time: 1 hr 18 min 18 sec) 
Heartbeat CPU 0 instructions: 94000000 cycles: 417275963 heartbeat IPC: 0.110249 cumulative IPC: 0.112345 (Simulation time: 1 hr 18 min 56 sec) 
Heartbeat CPU 0 instructions: 95000000 cycles: 426356988 heartbeat IPC: 0.11012 cumulative IPC: 0.112295 (Simulation time: 1 hr 19 min 34 sec) 
Heartbeat CPU 0 instructions: 96000000 cycles: 435474522 heartbeat IPC: 0.109679 cumulative IPC: 0.112236 (Simulation time: 1 hr 20 min 11 sec) 
Heartbeat CPU 0 instructions: 97000000 cycles: 444592457 heartbeat IPC: 0.109674 cumulative IPC: 0.112181 (Simulation time: 1 hr 20 min 47 sec) 
Heartbeat CPU 0 instructions: 98000000 cycles: 453700041 heartbeat IPC: 0.109799 cumulative IPC: 0.11213 (Simulation time: 1 hr 21 min 23 sec) 
Heartbeat CPU 0 instructions: 99000000 cycles: 462726091 heartbeat IPC: 0.11079 cumulative IPC: 0.112102 (Simulation time: 1 hr 21 min 58 sec) 
Heartbeat CPU 0 instructions: 100000000 cycles: 471918808 heartbeat IPC: 0.108782 cumulative IPC: 0.112034 (Simulation time: 1 hr 22 min 32 sec) 
Heartbeat CPU 0 instructions: 101000002 cycles: 480986594 heartbeat IPC: 0.110281 cumulative IPC: 0.111999 (Simulation time: 1 hr 23 min 5 sec) 
Heartbeat CPU 0 instructions: 102000000 cycles: 490163340 heartbeat IPC: 0.108971 cumulative IPC: 0.111939 (Simulation time: 1 hr 23 min 35 sec) 
Heartbeat CPU 0 instructions: 103000000 cycles: 499422069 heartbeat IPC: 0.108006 cumulative IPC: 0.111862 (Simulation time: 1 hr 24 min 6 sec) 
Heartbeat CPU 0 instructions: 104000000 cycles: 508605272 heartbeat IPC: 0.108894 cumulative IPC: 0.111806 (Simulation time: 1 hr 24 min 34 sec) 
Heartbeat CPU 0 instructions: 105000000 cycles: 517951747 heartbeat IPC: 0.106992 cumulative IPC: 0.111715 (Simulation time: 1 hr 25 min 2 sec) 
Heartbeat CPU 0 instructions: 106000002 cycles: 527220997 heartbeat IPC: 0.107884 cumulative IPC: 0.111644 (Simulation time: 1 hr 25 min 31 sec) 
Heartbeat CPU 0 instructions: 107000003 cycles: 536397475 heartbeat IPC: 0.108974 cumulative IPC: 0.111596 (Simulation time: 1 hr 25 min 58 sec) 
Heartbeat CPU 0 instructions: 108000000 cycles: 545554145 heartbeat IPC: 0.10921 cumulative IPC: 0.111554 (Simulation time: 1 hr 26 min 24 sec) 
Heartbeat CPU 0 instructions: 109000000 cycles: 554540303 heartbeat IPC: 0.111282 cumulative IPC: 0.111549 (Simulation time: 1 hr 26 min 49 sec) 
Heartbeat CPU 0 instructions: 110000000 cycles: 563656324 heartbeat IPC: 0.109697 cumulative IPC: 0.111518 (Simulation time: 1 hr 27 min 13 sec) 
Heartbeat CPU 0 instructions: 111000000 cycles: 572681146 heartbeat IPC: 0.110806 cumulative IPC: 0.111506 (Simulation time: 1 hr 27 min 35 sec) 
Heartbeat CPU 0 instructions: 112000000 cycles: 581867848 heartbeat IPC: 0.108853 cumulative IPC: 0.111462 (Simulation time: 1 hr 27 min 56 sec) 
Heartbeat CPU 0 instructions: 113000001 cycles: 590759961 heartbeat IPC: 0.112459 cumulative IPC: 0.111478 (Simulation time: 1 hr 28 min 16 sec) 
Heartbeat CPU 0 instructions: 114000000 cycles: 599883328 heartbeat IPC: 0.109609 cumulative IPC: 0.111448 (Simulation time: 1 hr 28 min 36 sec) 
Heartbeat CPU 0 instructions: 115000000 cycles: 608997642 heartbeat IPC: 0.109718 cumulative IPC: 0.111421 (Simulation time: 1 hr 28 min 51 sec) 
Heartbeat CPU 0 instructions: 116000000 cycles: 618079322 heartbeat IPC: 0.110112 cumulative IPC: 0.111401 (Simulation time: 1 hr 29 min 7 sec) 
Heartbeat CPU 0 instructions: 117000001 cycles: 627268299 heartbeat IPC: 0.108826 cumulative IPC: 0.111362 (Simulation time: 1 hr 29 min 19 sec) 
Heartbeat CPU 0 instructions: 118000000 cycles: 636301273 heartbeat IPC: 0.110705 cumulative IPC: 0.111352 (Simulation time: 1 hr 29 min 30 sec) 
Heartbeat CPU 0 instructions: 119000000 cycles: 645408665 heartbeat IPC: 0.109801 cumulative IPC: 0.111329 (Simulation time: 1 hr 29 min 44 sec) 
Heartbeat CPU 0 instructions: 120000000 cycles: 654452732 heartbeat IPC: 0.11057 cumulative IPC: 0.111318 (Simulation time: 1 hr 29 min 56 sec) 
Heartbeat CPU 0 instructions: 121000000 cycles: 663295754 heartbeat IPC: 0.113084 cumulative IPC: 0.111343 (Simulation time: 1 hr 30 min 7 sec) 
Heartbeat CPU 0 instructions: 122000001 cycles: 672495424 heartbeat IPC: 0.1087 cumulative IPC: 0.111305 (Simulation time: 1 hr 30 min 18 sec) 
Heartbeat CPU 0 instructions: 123000002 cycles: 681561236 heartbeat IPC: 0.110305 cumulative IPC: 0.111291 (Simulation time: 1 hr 30 min 26 sec) 
Heartbeat CPU 0 instructions: 124000000 cycles: 690957337 heartbeat IPC: 0.106427 cumulative IPC: 0.111223 (Simulation time: 1 hr 30 min 35 sec) 
Heartbeat CPU 0 instructions: 125000000 cycles: 700117477 heartbeat IPC: 0.109169 cumulative IPC: 0.111195 (Simulation time: 1 hr 30 min 44 sec) 
Heartbeat CPU 0 instructions: 126000002 cycles: 709504059 heartbeat IPC: 0.106535 cumulative IPC: 0.111131 (Simulation time: 1 hr 30 min 52 sec) 
Heartbeat CPU 0 instructions: 127000000 cycles: 718707000 heartbeat IPC: 0.108661 cumulative IPC: 0.111098 (Simulation time: 1 hr 30 min 59 sec) 
Heartbeat CPU 0 instructions: 128000000 cycles: 727887498 heartbeat IPC: 0.108927 cumulative IPC: 0.11107 (Simulation time: 1 hr 31 min 7 sec) 
Heartbeat CPU 0 instructions: 129000001 cycles: 737322423 heartbeat IPC: 0.105989 cumulative IPC: 0.111002 (Simulation time: 1 hr 31 min 15 sec) 
Heartbeat CPU 0 instructions: 130000000 cycles: 746838900 heartbeat IPC: 0.105081 cumulative IPC: 0.110924 (Simulation time: 1 hr 31 min 23 sec) 
Heartbeat CPU 0 instructions: 131000000 cycles: 756065676 heartbeat IPC: 0.10838 cumulative IPC: 0.110892 (Simulation time: 1 hr 31 min 30 sec) 
Heartbeat CPU 0 instructions: 132000000 cycles: 765204481 heartbeat IPC: 0.109423 cumulative IPC: 0.110874 (Simulation time: 1 hr 31 min 37 sec) 
Heartbeat CPU 0 instructions: 133000000 cycles: 774088269 heartbeat IPC: 0.112565 cumulative IPC: 0.110894 (Simulation time: 1 hr 31 min 44 sec) 
Heartbeat CPU 0 instructions: 134000002 cycles: 783092187 heartbeat IPC: 0.111063 cumulative IPC: 0.110896 (Simulation time: 1 hr 31 min 51 sec) 
Heartbeat CPU 0 instructions: 135000002 cycles: 792315899 heartbeat IPC: 0.108416 cumulative IPC: 0.110866 (Simulation time: 1 hr 31 min 58 sec) 
Heartbeat CPU 0 instructions: 136000000 cycles: 801366827 heartbeat IPC: 0.110486 cumulative IPC: 0.110862 (Simulation time: 1 hr 32 min 5 sec) 
Heartbeat CPU 0 instructions: 137000000 cycles: 810410382 heartbeat IPC: 0.110576 cumulative IPC: 0.110858 (Simulation time: 1 hr 32 min 13 sec) 
Heartbeat CPU 0 instructions: 138000000 cycles: 819451505 heartbeat IPC: 0.110606 cumulative IPC: 0.110856 (Simulation time: 1 hr 32 min 20 sec) 
Heartbeat CPU 0 instructions: 139000001 cycles: 828437859 heartbeat IPC: 0.11128 cumulative IPC: 0.11086 (Simulation time: 1 hr 32 min 28 sec) 
Heartbeat CPU 0 instructions: 140000000 cycles: 837360025 heartbeat IPC: 0.11208 cumulative IPC: 0.110874 (Simulation time: 1 hr 32 min 35 sec) 
Heartbeat CPU 0 instructions: 141000002 cycles: 850745972 heartbeat IPC: 0.0747054 cumulative IPC: 0.110287 (Simulation time: 1 hr 32 min 43 sec) 
Heartbeat CPU 0 instructions: 142000002 cycles: 860433153 heartbeat IPC: 0.103229 cumulative IPC: 0.110205 (Simulation time: 1 hr 32 min 50 sec) 
Heartbeat CPU 0 instructions: 143000001 cycles: 869400005 heartbeat IPC: 0.111522 cumulative IPC: 0.110219 (Simulation time: 1 hr 32 min 56 sec) 
Heartbeat CPU 0 instructions: 144000000 cycles: 878224135 heartbeat IPC: 0.113326 cumulative IPC: 0.110251 (Simulation time: 1 hr 33 min 3 sec) 
Heartbeat CPU 0 instructions: 145000000 cycles: 887207792 heartbeat IPC: 0.111313 cumulative IPC: 0.110262 (Simulation time: 1 hr 33 min 9 sec) 
Heartbeat CPU 0 instructions: 146000001 cycles: 895871301 heartbeat IPC: 0.115427 cumulative IPC: 0.110314 (Simulation time: 1 hr 33 min 15 sec) 
Heartbeat CPU 0 instructions: 147000001 cycles: 904357354 heartbeat IPC: 0.11784 cumulative IPC: 0.110386 (Simulation time: 1 hr 33 min 23 sec) 
Heartbeat CPU 0 instructions: 148000000 cycles: 912880520 heartbeat IPC: 0.117327 cumulative IPC: 0.110453 (Simulation time: 1 hr 33 min 30 sec) 
Heartbeat CPU 0 instructions: 149000001 cycles: 921206449 heartbeat IPC: 0.120107 cumulative IPC: 0.110543 (Simulation time: 1 hr 33 min 37 sec) 
Heartbeat CPU 0 instructions: 150000001 cycles: 929883881 heartbeat IPC: 0.115241 cumulative IPC: 0.110588 (Simulation time: 1 hr 33 min 44 sec) 
Finished CPU 0 instructions: 100000001 cycles: 904258528 cummulative IPC: 0.110588 (Simulation time: 1 hr 33 min 44 sec) 

ChampSim completed all CPUs

Region of Interest Statistics

CPU 0 cummulative IPC: 0.110588 instructions: 100000001 cycles: 904258528
LLC TOTAL     ACCESS:   27034519  HIT:   11449073  MISS:   15585446
LLC LOAD      ACCESS:   11744839  HIT:    8877314  MISS:    2867525
LLC RFO       ACCESS:      20889  HIT:      13647  MISS:       7242
LLC PREFETCH  ACCESS:   14995238  HIT:    2364865  MISS:   12630373
LLC WRITEBACK ACCESS:     273553  HIT:     193247  MISS:      80306
