
*** ChampSim Multicore Out-of-Order Simulator ***

Warmup Instructions: 50000000
Simulation Instructions: 100000000
Configuration: 2
Number of CPUs: 1
LLC sets: 2048
LLC ways: 16
Off-chip DRAM Channels: 1 Width: 64-bit Data Rate: 1600 MT/s

CPU 0 runs /datasets/cs240c-wi22-a00-public/data/Assignment2-gz/omnetpp_340B.trace.gz
CPU 0 L1D next line prefetcher
CPU 0 L2C IP-based stride prefetcher
config 2, num_core 1, llc_sets 2048
Heartbeat CPU 0 instructions: 1000001 cycles: 577018 heartbeat IPC: 1.73305 cumulative IPC: 1.73305 (Simulation time: 0 hr 0 min 46 sec) 
Heartbeat CPU 0 instructions: 2000000 cycles: 1161075 heartbeat IPC: 1.71216 cumulative IPC: 1.72254 (Simulation time: 0 hr 1 min 26 sec) 
Heartbeat CPU 0 instructions: 3000001 cycles: 1758565 heartbeat IPC: 1.67367 cumulative IPC: 1.70594 (Simulation time: 0 hr 2 min 7 sec) 
Heartbeat CPU 0 instructions: 4000000 cycles: 2379700 heartbeat IPC: 1.60995 cumulative IPC: 1.68088 (Simulation time: 0 hr 2 min 49 sec) 
Heartbeat CPU 0 instructions: 5000002 cycles: 2955442 heartbeat IPC: 1.73689 cumulative IPC: 1.69179 (Simulation time: 0 hr 3 min 30 sec) 
Heartbeat CPU 0 instructions: 6000003 cycles: 3556789 heartbeat IPC: 1.66294 cumulative IPC: 1.68692 (Simulation time: 0 hr 4 min 14 sec) 
Heartbeat CPU 0 instructions: 7000003 cycles: 4206231 heartbeat IPC: 1.53978 cumulative IPC: 1.6642 (Simulation time: 0 hr 4 min 59 sec) 
Heartbeat CPU 0 instructions: 8000000 cycles: 4800876 heartbeat IPC: 1.68167 cumulative IPC: 1.66636 (Simulation time: 0 hr 5 min 45 sec) 
Heartbeat CPU 0 instructions: 9000002 cycles: 5434405 heartbeat IPC: 1.57846 cumulative IPC: 1.65612 (Simulation time: 0 hr 6 min 28 sec) 
Heartbeat CPU 0 instructions: 10000002 cycles: 6029174 heartbeat IPC: 1.68133 cumulative IPC: 1.6586 (Simulation time: 0 hr 7 min 10 sec) 
Heartbeat CPU 0 instructions: 11000003 cycles: 6628824 heartbeat IPC: 1.66764 cumulative IPC: 1.65942 (Simulation time: 0 hr 7 min 51 sec) 
Heartbeat CPU 0 instructions: 12000000 cycles: 7231342 heartbeat IPC: 1.6597 cumulative IPC: 1.65944 (Simulation time: 0 hr 8 min 29 sec) 
Heartbeat CPU 0 instructions: 13000002 cycles: 7835009 heartbeat IPC: 1.65655 cumulative IPC: 1.65922 (Simulation time: 0 hr 9 min 11 sec) 
Heartbeat CPU 0 instructions: 14000000 cycles: 8430651 heartbeat IPC: 1.67886 cumulative IPC: 1.66061 (Simulation time: 0 hr 9 min 52 sec) 
Heartbeat CPU 0 instructions: 15000001 cycles: 9022455 heartbeat IPC: 1.68975 cumulative IPC: 1.66252 (Simulation time: 0 hr 10 min 35 sec) 
Heartbeat CPU 0 instructions: 16000000 cycles: 9645508 heartbeat IPC: 1.605 cumulative IPC: 1.6588 (Simulation time: 0 hr 11 min 18 sec) 
Heartbeat CPU 0 instructions: 17000000 cycles: 10251569 heartbeat IPC: 1.65 cumulative IPC: 1.65828 (Simulation time: 0 hr 11 min 55 sec) 
Heartbeat CPU 0 instructions: 18000000 cycles: 10872083 heartbeat IPC: 1.61157 cumulative IPC: 1.65562 (Simulation time: 0 hr 12 min 37 sec) 
Heartbeat CPU 0 instructions: 19000000 cycles: 11503745 heartbeat IPC: 1.58313 cumulative IPC: 1.65164 (Simulation time: 0 hr 13 min 25 sec) 
Heartbeat CPU 0 instructions: 20000000 cycles: 12089894 heartbeat IPC: 1.70605 cumulative IPC: 1.65427 (Simulation time: 0 hr 14 min 10 sec) 
Heartbeat CPU 0 instructions: 21000000 cycles: 12687435 heartbeat IPC: 1.67353 cumulative IPC: 1.65518 (Simulation time: 0 hr 14 min 49 sec) 
Heartbeat CPU 0 instructions: 22000001 cycles: 13302000 heartbeat IPC: 1.62717 cumulative IPC: 1.65389 (Simulation time: 0 hr 15 min 28 sec) 
Heartbeat CPU 0 instructions: 23000001 cycles: 13923903 heartbeat IPC: 1.60797 cumulative IPC: 1.65184 (Simulation time: 0 hr 16 min 8 sec) 
Heartbeat CPU 0 instructions: 24000000 cycles: 14547070 heartbeat IPC: 1.6047 cumulative IPC: 1.64982 (Simulation time: 0 hr 16 min 46 sec) 
Heartbeat CPU 0 instructions: 25000001 cycles: 15164225 heartbeat IPC: 1.62034 cumulative IPC: 1.64862 (Simulation time: 0 hr 17 min 26 sec) 
Heartbeat CPU 0 instructions: 26000001 cycles: 15755203 heartbeat IPC: 1.69211 cumulative IPC: 1.65025 (Simulation time: 0 hr 18 min 4 sec) 
Heartbeat CPU 0 instructions: 27000000 cycles: 16326028 heartbeat IPC: 1.75185 cumulative IPC: 1.6538 (Simulation time: 0 hr 18 min 41 sec) 
Heartbeat CPU 0 instructions: 28000000 cycles: 16921618 heartbeat IPC: 1.67901 cumulative IPC: 1.65469 (Simulation time: 0 hr 19 min 18 sec) 
Heartbeat CPU 0 instructions: 29000003 cycles: 17545119 heartbeat IPC: 1.60385 cumulative IPC: 1.65288 (Simulation time: 0 hr 19 min 57 sec) 
Heartbeat CPU 0 instructions: 30000003 cycles: 18121969 heartbeat IPC: 1.73355 cumulative IPC: 1.65545 (Simulation time: 0 hr 20 min 33 sec) 
Heartbeat CPU 0 instructions: 31000001 cycles: 18730841 heartbeat IPC: 1.64238 cumulative IPC: 1.65502 (Simulation time: 0 hr 21 min 11 sec) 
Heartbeat CPU 0 instructions: 32000000 cycles: 19336081 heartbeat IPC: 1.65224 cumulative IPC: 1.65494 (Simulation time: 0 hr 21 min 50 sec) 
Heartbeat CPU 0 instructions: 33000001 cycles: 19916170 heartbeat IPC: 1.72388 cumulative IPC: 1.65695 (Simulation time: 0 hr 22 min 27 sec) 
Heartbeat CPU 0 instructions: 34000001 cycles: 20567171 heartbeat IPC: 1.5361 cumulative IPC: 1.65312 (Simulation time: 0 hr 23 min 7 sec) 
Heartbeat CPU 0 instructions: 35000002 cycles: 21147832 heartbeat IPC: 1.72218 cumulative IPC: 1.65502 (Simulation time: 0 hr 23 min 42 sec) 
Heartbeat CPU 0 instructions: 36000000 cycles: 21757069 heartbeat IPC: 1.64139 cumulative IPC: 1.65463 (Simulation time: 0 hr 24 min 20 sec) 
Heartbeat CPU 0 instructions: 37000002 cycles: 22396005 heartbeat IPC: 1.56511 cumulative IPC: 1.65208 (Simulation time: 0 hr 24 min 59 sec) 
Heartbeat CPU 0 instructions: 38000000 cycles: 22978977 heartbeat IPC: 1.71534 cumulative IPC: 1.65369 (Simulation time: 0 hr 25 min 37 sec) 
Heartbeat CPU 0 instructions: 39000001 cycles: 23647643 heartbeat IPC: 1.49552 cumulative IPC: 1.64921 (Simulation time: 0 hr 26 min 20 sec) 
Heartbeat CPU 0 instructions: 40000000 cycles: 24237780 heartbeat IPC: 1.69452 cumulative IPC: 1.65032 (Simulation time: 0 hr 27 min 0 sec) 
Heartbeat CPU 0 instructions: 41000000 cycles: 24826412 heartbeat IPC: 1.69885 cumulative IPC: 1.65147 (Simulation time: 0 hr 27 min 39 sec) 
Heartbeat CPU 0 instructions: 42000001 cycles: 25454231 heartbeat IPC: 1.59282 cumulative IPC: 1.65002 (Simulation time: 0 hr 28 min 17 sec) 
Heartbeat CPU 0 instructions: 43000003 cycles: 26060320 heartbeat IPC: 1.64993 cumulative IPC: 1.65002 (Simulation time: 0 hr 28 min 53 sec) 
Heartbeat CPU 0 instructions: 44000000 cycles: 26614137 heartbeat IPC: 1.80565 cumulative IPC: 1.65326 (Simulation time: 0 hr 29 min 30 sec) 
Heartbeat CPU 0 instructions: 45000003 cycles: 27173491 heartbeat IPC: 1.78778 cumulative IPC: 1.65603 (Simulation time: 0 hr 30 min 9 sec) 
Heartbeat CPU 0 instructions: 46000001 cycles: 27788380 heartbeat IPC: 1.62631 cumulative IPC: 1.65537 (Simulation time: 0 hr 30 min 49 sec) 
Heartbeat CPU 0 instructions: 47000000 cycles: 28361678 heartbeat IPC: 1.74429 cumulative IPC: 1.65717 (Simulation time: 0 hr 31 min 29 sec) 
Heartbeat CPU 0 instructions: 48000000 cycles: 28963687 heartbeat IPC: 1.6611 cumulative IPC: 1.65725 (Simulation time: 0 hr 32 min 10 sec) 
Heartbeat CPU 0 instructions: 49000000 cycles: 29543252 heartbeat IPC: 1.72543 cumulative IPC: 1.65859 (Simulation time: 0 hr 32 min 46 sec) 
Heartbeat CPU 0 instructions: 50000000 cycles: 30186651 heartbeat IPC: 1.55425 cumulative IPC: 1.65636 (Simulation time: 0 hr 33 min 24 sec) 

Warmup complete CPU 0 instructions: 50000004 cycles: 30186652 (Simulation time: 0 hr 33 min 24 sec) 

Heartbeat CPU 0 instructions: 51000003 cycles: 33975742 heartbeat IPC: 0.263916 cumulative IPC: 0.263915 (Simulation time: 0 hr 34 min 15 sec) 
Heartbeat CPU 0 instructions: 52000000 cycles: 37964784 heartbeat IPC: 0.250686 cumulative IPC: 0.257131 (Simulation time: 0 hr 35 min 8 sec) 
Heartbeat CPU 0 instructions: 53000000 cycles: 42560175 heartbeat IPC: 0.217609 cumulative IPC: 0.242453 (Simulation time: 0 hr 35 min 59 sec) 
Heartbeat CPU 0 instructions: 54000002 cycles: 46700569 heartbeat IPC: 0.241523 cumulative IPC: 0.24222 (Simulation time: 0 hr 36 min 51 sec) 
Heartbeat CPU 0 instructions: 55000001 cycles: 50595025 heartbeat IPC: 0.256775 cumulative IPC: 0.244997 (Simulation time: 0 hr 37 min 40 sec) 
Heartbeat CPU 0 instructions: 56000000 cycles: 55018591 heartbeat IPC: 0.226062 cumulative IPC: 0.241624 (Simulation time: 0 hr 38 min 29 sec) 
Heartbeat CPU 0 instructions: 57000001 cycles: 59127265 heartbeat IPC: 0.243388 cumulative IPC: 0.241875 (Simulation time: 0 hr 39 min 17 sec) 
Heartbeat CPU 0 instructions: 58000000 cycles: 62534866 heartbeat IPC: 0.293461 cumulative IPC: 0.247309 (Simulation time: 0 hr 40 min 4 sec) 
Heartbeat CPU 0 instructions: 59000003 cycles: 66459711 heartbeat IPC: 0.254788 cumulative IPC: 0.248118 (Simulation time: 0 hr 40 min 55 sec) 
Heartbeat CPU 0 instructions: 60000000 cycles: 70907173 heartbeat IPC: 0.224847 cumulative IPC: 0.245576 (Simulation time: 0 hr 41 min 45 sec) 
Heartbeat CPU 0 instructions: 61000001 cycles: 75171135 heartbeat IPC: 0.234524 cumulative IPC: 0.244529 (Simulation time: 0 hr 42 min 37 sec) 
Heartbeat CPU 0 instructions: 62000000 cycles: 79438175 heartbeat IPC: 0.234354 cumulative IPC: 0.243647 (Simulation time: 0 hr 43 min 26 sec) 
Heartbeat CPU 0 instructions: 63000001 cycles: 83134075 heartbeat IPC: 0.27057 cumulative IPC: 0.245527 (Simulation time: 0 hr 44 min 20 sec) 
Heartbeat CPU 0 instructions: 64000000 cycles: 86945744 heartbeat IPC: 0.262352 cumulative IPC: 0.246656 (Simulation time: 0 hr 45 min 6 sec) 
Heartbeat CPU 0 instructions: 65000001 cycles: 90464456 heartbeat IPC: 0.284195 cumulative IPC: 0.248848 (Simulation time: 0 hr 45 min 53 sec) 
Heartbeat CPU 0 instructions: 66000002 cycles: 94586528 heartbeat IPC: 0.242597 cumulative IPC: 0.248448 (Simulation time: 0 hr 46 min 44 sec) 
Heartbeat CPU 0 instructions: 67000002 cycles: 98491937 heartbeat IPC: 0.256055 cumulative IPC: 0.248883 (Simulation time: 0 hr 47 min 31 sec) 
Heartbeat CPU 0 instructions: 68000000 cycles: 102349814 heartbeat IPC: 0.259209 cumulative IPC: 0.249435 (Simulation time: 0 hr 48 min 18 sec) 
Heartbeat CPU 0 instructions: 69000000 cycles: 106440328 heartbeat IPC: 0.244468 cumulative IPC: 0.249168 (Simulation time: 0 hr 49 min 6 sec) 
Heartbeat CPU 0 instructions: 70000001 cycles: 110099714 heartbeat IPC: 0.27327 cumulative IPC: 0.250272 (Simulation time: 0 hr 49 min 51 sec) 
Heartbeat CPU 0 instructions: 71000003 cycles: 113990670 heartbeat IPC: 0.257007 cumulative IPC: 0.250585 (Simulation time: 0 hr 50 min 39 sec) 
Heartbeat CPU 0 instructions: 72000000 cycles: 118537319 heartbeat IPC: 0.219942 cumulative IPC: 0.249008 (Simulation time: 0 hr 51 min 37 sec) 
Heartbeat CPU 0 instructions: 73000002 cycles: 122564908 heartbeat IPC: 0.248288 cumulative IPC: 0.248976 (Simulation time: 0 hr 52 min 28 sec) 
Heartbeat CPU 0 instructions: 74000000 cycles: 126473413 heartbeat IPC: 0.255852 cumulative IPC: 0.249255 (Simulation time: 0 hr 53 min 20 sec) 
Heartbeat CPU 0 instructions: 75000003 cycles: 130577929 heartbeat IPC: 0.243635 cumulative IPC: 0.249026 (Simulation time: 0 hr 54 min 13 sec) 
Heartbeat CPU 0 instructions: 76000000 cycles: 134472923 heartbeat IPC: 0.256739 cumulative IPC: 0.249314 (Simulation time: 0 hr 55 min 3 sec) 
Heartbeat CPU 0 instructions: 77000002 cycles: 139134318 heartbeat IPC: 0.214528 cumulative IPC: 0.247825 (Simulation time: 0 hr 56 min 2 sec) 
Heartbeat CPU 0 instructions: 78000003 cycles: 142983260 heartbeat IPC: 0.259812 cumulative IPC: 0.248234 (Simulation time: 0 hr 56 min 51 sec) 
Heartbeat CPU 0 instructions: 79000002 cycles: 146839915 heartbeat IPC: 0.259292 cumulative IPC: 0.2486 (Simulation time: 0 hr 57 min 39 sec) 
Heartbeat CPU 0 instructions: 80000000 cycles: 150715117 heartbeat IPC: 0.258051 cumulative IPC: 0.248904 (Simulation time: 0 hr 58 min 28 sec) 
Heartbeat CPU 0 instructions: 81000002 cycles: 154922161 heartbeat IPC: 0.237697 cumulative IPC: 0.248526 (Simulation time: 0 hr 59 min 23 sec) 
Heartbeat CPU 0 instructions: 82000000 cycles: 159427351 heartbeat IPC: 0.221966 cumulative IPC: 0.2476 (Simulation time: 1 hr 0 min 18 sec) 
Heartbeat CPU 0 instructions: 83000002 cycles: 163202066 heartbeat IPC: 0.264921 cumulative IPC: 0.248092 (Simulation time: 1 hr 1 min 6 sec) 
Heartbeat CPU 0 instructions: 84000000 cycles: 167116026 heartbeat IPC: 0.255495 cumulative IPC: 0.248303 (Simulation time: 1 hr 1 min 53 sec) 
Heartbeat CPU 0 instructions: 85000000 cycles: 170971497 heartbeat IPC: 0.259372 cumulative IPC: 0.248606 (Simulation time: 1 hr 2 min 39 sec) 
Heartbeat CPU 0 instructions: 86000000 cycles: 174979724 heartbeat IPC: 0.249487 cumulative IPC: 0.248631 (Simulation time: 1 hr 3 min 26 sec) 
Heartbeat CPU 0 instructions: 87000001 cycles: 178732907 heartbeat IPC: 0.266441 cumulative IPC: 0.249081 (Simulation time: 1 hr 4 min 10 sec) 
Heartbeat CPU 0 instructions: 88000000 cycles: 182650712 heartbeat IPC: 0.255245 cumulative IPC: 0.249239 (Simulation time: 1 hr 5 min 1 sec) 
Heartbeat CPU 0 instructions: 89000003 cycles: 186215991 heartbeat IPC: 0.280484 cumulative IPC: 0.249953 (Simulation time: 1 hr 5 min 51 sec) 
Heartbeat CPU 0 instructions: 90000000 cycles: 190102502 heartbeat IPC: 0.257299 cumulative IPC: 0.250132 (Simulation time: 1 hr 6 min 36 sec) 
Heartbeat CPU 0 instructions: 91000001 cycles: 193768811 heartbeat IPC: 0.272754 cumulative IPC: 0.250639 (Simulation time: 1 hr 7 min 22 sec) 
Heartbeat CPU 0 instructions: 92000000 cycles: 197821553 heartbeat IPC: 0.246746 cumulative IPC: 0.250544 (Simulation time: 1 hr 8 min 9 sec) 
Heartbeat CPU 0 instructions: 93000001 cycles: 202242676 heartbeat IPC: 0.226187 cumulative IPC: 0.249919 (Simulation time: 1 hr 8 min 58 sec) 
Heartbeat CPU 0 instructions: 94000001 cycles: 206037956 heartbeat IPC: 0.263485 cumulative IPC: 0.250211 (Simulation time: 1 hr 9 min 41 sec) 
Heartbeat CPU 0 instructions: 95000000 cycles: 209990085 heartbeat IPC: 0.253028 cumulative IPC: 0.250273 (Simulation time: 1 hr 10 min 32 sec) 
Heartbeat CPU 0 instructions: 96000000 cycles: 214309227 heartbeat IPC: 0.231527 cumulative IPC: 0.249834 (Simulation time: 1 hr 11 min 17 sec) 
Heartbeat CPU 0 instructions: 97000000 cycles: 218004848 heartbeat IPC: 0.270591 cumulative IPC: 0.250242 (Simulation time: 1 hr 12 min 1 sec) 
Heartbeat CPU 0 instructions: 98000000 cycles: 222274707 heartbeat IPC: 0.2342 cumulative IPC: 0.249885 (Simulation time: 1 hr 12 min 47 sec) 
Heartbeat CPU 0 instructions: 99000000 cycles: 226733060 heartbeat IPC: 0.224298 cumulative IPC: 0.249305 (Simulation time: 1 hr 13 min 33 sec) 
Heartbeat CPU 0 instructions: 100000000 cycles: 230811605 heartbeat IPC: 0.245185 cumulative IPC: 0.249221 (Simulation time: 1 hr 14 min 15 sec) 
Heartbeat CPU 0 instructions: 101000000 cycles: 234751933 heartbeat IPC: 0.253786 cumulative IPC: 0.249309 (Simulation time: 1 hr 14 min 55 sec) 
Heartbeat CPU 0 instructions: 102000003 cycles: 238960522 heartbeat IPC: 0.23761 cumulative IPC: 0.249073 (Simulation time: 1 hr 15 min 35 sec) 
Heartbeat CPU 0 instructions: 103000000 cycles: 242829960 heartbeat IPC: 0.258435 cumulative IPC: 0.249244 (Simulation time: 1 hr 16 min 12 sec) 
Heartbeat CPU 0 instructions: 104000000 cycles: 246625429 heartbeat IPC: 0.263472 cumulative IPC: 0.249493 (Simulation time: 1 hr 16 min 45 sec) 
Heartbeat CPU 0 instructions: 105000003 cycles: 250671231 heartbeat IPC: 0.247171 cumulative IPC: 0.249451 (Simulation time: 1 hr 17 min 19 sec) 
Heartbeat CPU 0 instructions: 106000001 cycles: 254221160 heartbeat IPC: 0.281695 cumulative IPC: 0.249961 (Simulation time: 1 hr 17 min 48 sec) 
Heartbeat CPU 0 instructions: 107000000 cycles: 258263963 heartbeat IPC: 0.247353 cumulative IPC: 0.249915 (Simulation time: 1 hr 18 min 20 sec) 
Heartbeat CPU 0 instructions: 108000000 cycles: 262199536 heartbeat IPC: 0.254093 cumulative IPC: 0.249986 (Simulation time: 1 hr 18 min 51 sec) 
Heartbeat CPU 0 instructions: 109000000 cycles: 266542069 heartbeat IPC: 0.23028 cumulative IPC: 0.249624 (Simulation time: 1 hr 19 min 21 sec) 
Heartbeat CPU 0 instructions: 110000000 cycles: 270208675 heartbeat IPC: 0.272732 cumulative IPC: 0.249977 (Simulation time: 1 hr 19 min 50 sec) 
Heartbeat CPU 0 instructions: 111000002 cycles: 274595185 heartbeat IPC: 0.227972 cumulative IPC: 0.249582 (Simulation time: 1 hr 20 min 19 sec) 
Heartbeat CPU 0 instructions: 112000000 cycles: 278540548 heartbeat IPC: 0.253462 cumulative IPC: 0.249644 (Simulation time: 1 hr 20 min 47 sec) 
Heartbeat CPU 0 instructions: 113000002 cycles: 282014350 heartbeat IPC: 0.28787 cumulative IPC: 0.250171 (Simulation time: 1 hr 21 min 12 sec) 
Heartbeat CPU 0 instructions: 114000000 cycles: 285343328 heartbeat IPC: 0.300392 cumulative IPC: 0.250826 (Simulation time: 1 hr 21 min 35 sec) 
Heartbeat CPU 0 instructions: 115000000 cycles: 288836538 heartbeat IPC: 0.28627 cumulative IPC: 0.251305 (Simulation time: 1 hr 22 min 1 sec) 
Heartbeat CPU 0 instructions: 116000000 cycles: 292833303 heartbeat IPC: 0.250202 cumulative IPC: 0.251288 (Simulation time: 1 hr 22 min 28 sec) 
Heartbeat CPU 0 instructions: 117000000 cycles: 296563272 heartbeat IPC: 0.268099 cumulative IPC: 0.251524 (Simulation time: 1 hr 22 min 52 sec) 
Heartbeat CPU 0 instructions: 118000000 cycles: 300202439 heartbeat IPC: 0.274788 cumulative IPC: 0.251837 (Simulation time: 1 hr 23 min 14 sec) 
Heartbeat CPU 0 instructions: 119000001 cycles: 303910867 heartbeat IPC: 0.269656 cumulative IPC: 0.252079 (Simulation time: 1 hr 23 min 38 sec) 
Heartbeat CPU 0 instructions: 120000000 cycles: 307518300 heartbeat IPC: 0.277205 cumulative IPC: 0.252405 (Simulation time: 1 hr 24 min 0 sec) 
Heartbeat CPU 0 instructions: 121000001 cycles: 311055495 heartbeat IPC: 0.28271 cumulative IPC: 0.252787 (Simulation time: 1 hr 24 min 23 sec) 
Heartbeat CPU 0 instructions: 122000001 cycles: 314769017 heartbeat IPC: 0.269286 cumulative IPC: 0.253002 (Simulation time: 1 hr 24 min 45 sec) 
Heartbeat CPU 0 instructions: 123000000 cycles: 318334089 heartbeat IPC: 0.280499 cumulative IPC: 0.253343 (Simulation time: 1 hr 25 min 6 sec) 
Heartbeat CPU 0 instructions: 124000000 cycles: 321865293 heartbeat IPC: 0.28319 cumulative IPC: 0.253704 (Simulation time: 1 hr 25 min 28 sec) 
Heartbeat CPU 0 instructions: 125000001 cycles: 325497092 heartbeat IPC: 0.275346 cumulative IPC: 0.25397 (Simulation time: 1 hr 25 min 48 sec) 
Heartbeat CPU 0 instructions: 126000003 cycles: 329121902 heartbeat IPC: 0.275877 cumulative IPC: 0.254236 (Simulation time: 1 hr 26 min 7 sec) 
Heartbeat CPU 0 instructions: 127000001 cycles: 332592990 heartbeat IPC: 0.288094 cumulative IPC: 0.254624 (Simulation time: 1 hr 26 min 25 sec) 
Heartbeat CPU 0 instructions: 128000000 cycles: 336031782 heartbeat IPC: 0.290799 cumulative IPC: 0.255031 (Simulation time: 1 hr 26 min 43 sec) 
Heartbeat CPU 0 instructions: 129000001 cycles: 339171022 heartbeat IPC: 0.318549 cumulative IPC: 0.255676 (Simulation time: 1 hr 27 min 1 sec) 
Heartbeat CPU 0 instructions: 130000000 cycles: 342845536 heartbeat IPC: 0.272145 cumulative IPC: 0.25587 (Simulation time: 1 hr 27 min 19 sec) 
Heartbeat CPU 0 instructions: 131000000 cycles: 346464477 heartbeat IPC: 0.276324 cumulative IPC: 0.256104 (Simulation time: 1 hr 27 min 36 sec) 
Heartbeat CPU 0 instructions: 132000000 cycles: 350326460 heartbeat IPC: 0.258934 cumulative IPC: 0.256138 (Simulation time: 1 hr 27 min 52 sec) 
Heartbeat CPU 0 instructions: 133000001 cycles: 354396374 heartbeat IPC: 0.245706 cumulative IPC: 0.256007 (Simulation time: 1 hr 28 min 9 sec) 
Heartbeat CPU 0 instructions: 134000000 cycles: 358604830 heartbeat IPC: 0.237617 cumulative IPC: 0.255771 (Simulation time: 1 hr 28 min 28 sec) 
Heartbeat CPU 0 instructions: 135000001 cycles: 362334018 heartbeat IPC: 0.268155 cumulative IPC: 0.25591 (Simulation time: 1 hr 28 min 42 sec) 
Heartbeat CPU 0 instructions: 136000000 cycles: 365882314 heartbeat IPC: 0.281825 cumulative IPC: 0.256184 (Simulation time: 1 hr 28 min 55 sec) 
Heartbeat CPU 0 instructions: 137000000 cycles: 369500223 heartbeat IPC: 0.276403 cumulative IPC: 0.2564 (Simulation time: 1 hr 29 min 9 sec) 
Heartbeat CPU 0 instructions: 138000000 cycles: 373164089 heartbeat IPC: 0.272936 cumulative IPC: 0.256577 (Simulation time: 1 hr 29 min 21 sec) 
Heartbeat CPU 0 instructions: 139000000 cycles: 377206593 heartbeat IPC: 0.247371 cumulative IPC: 0.256469 (Simulation time: 1 hr 29 min 31 sec) 
Heartbeat CPU 0 instructions: 140000000 cycles: 380802244 heartbeat IPC: 0.278114 cumulative IPC: 0.256691 (Simulation time: 1 hr 29 min 42 sec) 
Heartbeat CPU 0 instructions: 141000001 cycles: 385086763 heartbeat IPC: 0.233399 cumulative IPC: 0.25641 (Simulation time: 1 hr 29 min 53 sec) 
Heartbeat CPU 0 instructions: 142000000 cycles: 389164000 heartbeat IPC: 0.245264 cumulative IPC: 0.256284 (Simulation time: 1 hr 30 min 4 sec) 
Heartbeat CPU 0 instructions: 143000000 cycles: 393320958 heartbeat IPC: 0.240561 cumulative IPC: 0.256104 (Simulation time: 1 hr 30 min 13 sec) 
Heartbeat CPU 0 instructions: 144000000 cycles: 397377252 heartbeat IPC: 0.24653 cumulative IPC: 0.255998 (Simulation time: 1 hr 30 min 22 sec) 
Heartbeat CPU 0 instructions: 145000001 cycles: 400827584 heartbeat IPC: 0.289827 cumulative IPC: 0.256313 (Simulation time: 1 hr 30 min 30 sec) 
Heartbeat CPU 0 instructions: 146000001 cycles: 405109562 heartbeat IPC: 0.233537 cumulative IPC: 0.256053 (Simulation time: 1 hr 30 min 37 sec) 
Heartbeat CPU 0 instructions: 147000002 cycles: 409332727 heartbeat IPC: 0.236789 cumulative IPC: 0.255838 (Simulation time: 1 hr 30 min 44 sec) 
Heartbeat CPU 0 instructions: 148000000 cycles: 413264978 heartbeat IPC: 0.254307 cumulative IPC: 0.255822 (Simulation time: 1 hr 30 min 51 sec) 
Heartbeat CPU 0 instructions: 149000000 cycles: 417081427 heartbeat IPC: 0.262024 cumulative IPC: 0.255884 (Simulation time: 1 hr 30 min 57 sec) 
Heartbeat CPU 0 instructions: 150000000 cycles: 420252472 heartbeat IPC: 0.315353 cumulative IPC: 0.256367 (Simulation time: 1 hr 31 min 3 sec) 
Finished CPU 0 instructions: 100000000 cycles: 390065821 cummulative IPC: 0.256367 (Simulation time: 1 hr 31 min 3 sec) 

ChampSim completed all CPUs

Region of Interest Statistics

CPU 0 cummulative IPC: 0.256367 instructions: 100000000 cycles: 390065821
LLC TOTAL     ACCESS:    4288113  HIT:    1214777  MISS:    3073336
LLC LOAD      ACCESS:    1518275  HIT:     480929  MISS:    1037346
LLC RFO       ACCESS:     247188  HIT:      94578  MISS:     152610
LLC PREFETCH  ACCESS:    1525125  HIT:     112272  MISS:    1412853
LLC WRITEBACK ACCESS:     997525  HIT:     526998  MISS:     470527
