
*** ChampSim Multicore Out-of-Order Simulator ***

Warmup Instructions: 50000000
Simulation Instructions: 100000000
Configuration: 2
Number of CPUs: 1
LLC sets: 2048
LLC ways: 16
Off-chip DRAM Channels: 1 Width: 64-bit Data Rate: 1600 MT/s

CPU 0 runs /datasets/cs240c-wi22-a00-public/data/Assignment2-gz/leslie3d_1186B.trace.gz
CPU 0 L1D next line prefetcher
CPU 0 L2C IP-based stride prefetcher
config 2, num_core 1, llc_sets 2048
Heartbeat CPU 0 instructions: 1000002 cycles: 564510 heartbeat IPC: 1.77145 cumulative IPC: 1.77145 (Simulation time: 0 hr 0 min 49 sec) 
Heartbeat CPU 0 instructions: 2000000 cycles: 1215849 heartbeat IPC: 1.5353 cumulative IPC: 1.64494 (Simulation time: 0 hr 1 min 36 sec) 
Heartbeat CPU 0 instructions: 3000000 cycles: 1867614 heartbeat IPC: 1.5343 cumulative IPC: 1.60633 (Simulation time: 0 hr 2 min 16 sec) 
Heartbeat CPU 0 instructions: 4000000 cycles: 2473204 heartbeat IPC: 1.65128 cumulative IPC: 1.61734 (Simulation time: 0 hr 2 min 51 sec) 
Heartbeat CPU 0 instructions: 5000000 cycles: 3083584 heartbeat IPC: 1.63832 cumulative IPC: 1.62149 (Simulation time: 0 hr 3 min 34 sec) 
Heartbeat CPU 0 instructions: 6000000 cycles: 3735383 heartbeat IPC: 1.53422 cumulative IPC: 1.60626 (Simulation time: 0 hr 4 min 15 sec) 
Heartbeat CPU 0 instructions: 7000001 cycles: 4386676 heartbeat IPC: 1.53541 cumulative IPC: 1.59574 (Simulation time: 0 hr 4 min 58 sec) 
Heartbeat CPU 0 instructions: 8000000 cycles: 4951317 heartbeat IPC: 1.77104 cumulative IPC: 1.61573 (Simulation time: 0 hr 5 min 39 sec) 
Heartbeat CPU 0 instructions: 9000003 cycles: 5602605 heartbeat IPC: 1.53542 cumulative IPC: 1.6064 (Simulation time: 0 hr 6 min 21 sec) 
Heartbeat CPU 0 instructions: 10000001 cycles: 6253760 heartbeat IPC: 1.53573 cumulative IPC: 1.59904 (Simulation time: 0 hr 7 min 4 sec) 
Heartbeat CPU 0 instructions: 11000000 cycles: 6820484 heartbeat IPC: 1.76453 cumulative IPC: 1.61279 (Simulation time: 0 hr 7 min 45 sec) 
Heartbeat CPU 0 instructions: 12000000 cycles: 7469567 heartbeat IPC: 1.54063 cumulative IPC: 1.60652 (Simulation time: 0 hr 8 min 29 sec) 
Heartbeat CPU 0 instructions: 13000002 cycles: 8121055 heartbeat IPC: 1.53495 cumulative IPC: 1.60078 (Simulation time: 0 hr 9 min 12 sec) 
Heartbeat CPU 0 instructions: 14000000 cycles: 8755473 heartbeat IPC: 1.57624 cumulative IPC: 1.599 (Simulation time: 0 hr 9 min 54 sec) 
Heartbeat CPU 0 instructions: 15000000 cycles: 9336519 heartbeat IPC: 1.72103 cumulative IPC: 1.60659 (Simulation time: 0 hr 10 min 40 sec) 
Heartbeat CPU 0 instructions: 16000000 cycles: 9988094 heartbeat IPC: 1.53474 cumulative IPC: 1.60191 (Simulation time: 0 hr 11 min 28 sec) 
Heartbeat CPU 0 instructions: 17000000 cycles: 10639165 heartbeat IPC: 1.53593 cumulative IPC: 1.59787 (Simulation time: 0 hr 12 min 8 sec) 
Heartbeat CPU 0 instructions: 18000003 cycles: 11203608 heartbeat IPC: 1.77166 cumulative IPC: 1.60663 (Simulation time: 0 hr 12 min 47 sec) 
Heartbeat CPU 0 instructions: 19000003 cycles: 11854899 heartbeat IPC: 1.53541 cumulative IPC: 1.60271 (Simulation time: 0 hr 13 min 33 sec) 
Heartbeat CPU 0 instructions: 20000000 cycles: 12506061 heartbeat IPC: 1.53571 cumulative IPC: 1.59922 (Simulation time: 0 hr 14 min 15 sec) 
Heartbeat CPU 0 instructions: 21000001 cycles: 13101693 heartbeat IPC: 1.67889 cumulative IPC: 1.60285 (Simulation time: 0 hr 14 min 55 sec) 
Heartbeat CPU 0 instructions: 22000003 cycles: 13721637 heartbeat IPC: 1.61305 cumulative IPC: 1.60331 (Simulation time: 0 hr 15 min 32 sec) 
Heartbeat CPU 0 instructions: 23000001 cycles: 14372771 heartbeat IPC: 1.53578 cumulative IPC: 1.60025 (Simulation time: 0 hr 16 min 10 sec) 
Heartbeat CPU 0 instructions: 24000000 cycles: 15024377 heartbeat IPC: 1.53467 cumulative IPC: 1.5974 (Simulation time: 0 hr 16 min 51 sec) 
Heartbeat CPU 0 instructions: 25000000 cycles: 15588428 heartbeat IPC: 1.77289 cumulative IPC: 1.60375 (Simulation time: 0 hr 17 min 30 sec) 
Heartbeat CPU 0 instructions: 26000003 cycles: 16240358 heartbeat IPC: 1.53391 cumulative IPC: 1.60095 (Simulation time: 0 hr 18 min 8 sec) 
Heartbeat CPU 0 instructions: 27000000 cycles: 16891965 heartbeat IPC: 1.53466 cumulative IPC: 1.59839 (Simulation time: 0 hr 18 min 45 sec) 
Heartbeat CPU 0 instructions: 28000000 cycles: 17456067 heartbeat IPC: 1.77273 cumulative IPC: 1.60403 (Simulation time: 0 hr 19 min 23 sec) 
Heartbeat CPU 0 instructions: 29000002 cycles: 18107498 heartbeat IPC: 1.53509 cumulative IPC: 1.60155 (Simulation time: 0 hr 20 min 1 sec) 
Heartbeat CPU 0 instructions: 30000002 cycles: 18758835 heartbeat IPC: 1.5353 cumulative IPC: 1.59925 (Simulation time: 0 hr 20 min 42 sec) 
Heartbeat CPU 0 instructions: 31000002 cycles: 19382878 heartbeat IPC: 1.60245 cumulative IPC: 1.59935 (Simulation time: 0 hr 21 min 20 sec) 
Heartbeat CPU 0 instructions: 32000000 cycles: 19974348 heartbeat IPC: 1.6907 cumulative IPC: 1.60205 (Simulation time: 0 hr 22 min 2 sec) 
Heartbeat CPU 0 instructions: 33000000 cycles: 20625908 heartbeat IPC: 1.53478 cumulative IPC: 1.59993 (Simulation time: 0 hr 22 min 38 sec) 
Heartbeat CPU 0 instructions: 34000000 cycles: 21277929 heartbeat IPC: 1.53369 cumulative IPC: 1.5979 (Simulation time: 0 hr 23 min 19 sec) 
Heartbeat CPU 0 instructions: 35000000 cycles: 21842167 heartbeat IPC: 1.7723 cumulative IPC: 1.60241 (Simulation time: 0 hr 24 min 1 sec) 
Heartbeat CPU 0 instructions: 36000000 cycles: 22493724 heartbeat IPC: 1.53479 cumulative IPC: 1.60045 (Simulation time: 0 hr 24 min 38 sec) 
Heartbeat CPU 0 instructions: 37000003 cycles: 23145423 heartbeat IPC: 1.53446 cumulative IPC: 1.59859 (Simulation time: 0 hr 25 min 14 sec) 
Heartbeat CPU 0 instructions: 38000002 cycles: 23731103 heartbeat IPC: 1.70742 cumulative IPC: 1.60127 (Simulation time: 0 hr 25 min 53 sec) 
Heartbeat CPU 0 instructions: 39000000 cycles: 24361310 heartbeat IPC: 1.58678 cumulative IPC: 1.6009 (Simulation time: 0 hr 26 min 31 sec) 
Heartbeat CPU 0 instructions: 40000000 cycles: 25013107 heartbeat IPC: 1.53422 cumulative IPC: 1.59916 (Simulation time: 0 hr 27 min 17 sec) 
Heartbeat CPU 0 instructions: 41000000 cycles: 25664088 heartbeat IPC: 1.53614 cumulative IPC: 1.59756 (Simulation time: 0 hr 27 min 56 sec) 
Heartbeat CPU 0 instructions: 42000000 cycles: 26228892 heartbeat IPC: 1.77053 cumulative IPC: 1.60129 (Simulation time: 0 hr 28 min 31 sec) 
Heartbeat CPU 0 instructions: 43000002 cycles: 26879974 heartbeat IPC: 1.53591 cumulative IPC: 1.5997 (Simulation time: 0 hr 29 min 13 sec) 
Heartbeat CPU 0 instructions: 44000000 cycles: 27531473 heartbeat IPC: 1.53492 cumulative IPC: 1.59817 (Simulation time: 0 hr 29 min 50 sec) 
Heartbeat CPU 0 instructions: 45000001 cycles: 28090603 heartbeat IPC: 1.78849 cumulative IPC: 1.60196 (Simulation time: 0 hr 30 min 25 sec) 
Heartbeat CPU 0 instructions: 46000001 cycles: 28591365 heartbeat IPC: 1.99696 cumulative IPC: 1.60888 (Simulation time: 0 hr 30 min 59 sec) 
Heartbeat CPU 0 instructions: 47000001 cycles: 29092089 heartbeat IPC: 1.99711 cumulative IPC: 1.61556 (Simulation time: 0 hr 31 min 35 sec) 
Heartbeat CPU 0 instructions: 48000000 cycles: 29592981 heartbeat IPC: 1.99644 cumulative IPC: 1.62201 (Simulation time: 0 hr 32 min 13 sec) 
Heartbeat CPU 0 instructions: 49000002 cycles: 30093392 heartbeat IPC: 1.99836 cumulative IPC: 1.62826 (Simulation time: 0 hr 32 min 46 sec) 
Heartbeat CPU 0 instructions: 50000001 cycles: 30594359 heartbeat IPC: 1.99614 cumulative IPC: 1.63429 (Simulation time: 0 hr 33 min 20 sec) 

Warmup complete CPU 0 instructions: 50000001 cycles: 30594359 (Simulation time: 0 hr 33 min 20 sec) 

Heartbeat CPU 0 instructions: 51000000 cycles: 32562734 heartbeat IPC: 0.508033 cumulative IPC: 0.508033 (Simulation time: 0 hr 34 min 2 sec) 
Heartbeat CPU 0 instructions: 52000000 cycles: 34506127 heartbeat IPC: 0.514564 cumulative IPC: 0.511277 (Simulation time: 0 hr 34 min 57 sec) 
Heartbeat CPU 0 instructions: 53000003 cycles: 36478880 heartbeat IPC: 0.506907 cumulative IPC: 0.509812 (Simulation time: 0 hr 35 min 42 sec) 
Heartbeat CPU 0 instructions: 54000003 cycles: 38460156 heartbeat IPC: 0.504725 cumulative IPC: 0.508531 (Simulation time: 0 hr 36 min 25 sec) 
Heartbeat CPU 0 instructions: 55000001 cycles: 40475451 heartbeat IPC: 0.496204 cumulative IPC: 0.506017 (Simulation time: 0 hr 37 min 5 sec) 
Heartbeat CPU 0 instructions: 56000000 cycles: 42719965 heartbeat IPC: 0.44553 cumulative IPC: 0.494821 (Simulation time: 0 hr 37 min 45 sec) 
Heartbeat CPU 0 instructions: 57000003 cycles: 44977136 heartbeat IPC: 0.443034 cumulative IPC: 0.486693 (Simulation time: 0 hr 38 min 28 sec) 
Heartbeat CPU 0 instructions: 58000001 cycles: 47222815 heartbeat IPC: 0.445299 cumulative IPC: 0.481103 (Simulation time: 0 hr 39 min 13 sec) 
Heartbeat CPU 0 instructions: 59000003 cycles: 49355274 heartbeat IPC: 0.468943 cumulative IPC: 0.479721 (Simulation time: 0 hr 39 min 58 sec) 
Heartbeat CPU 0 instructions: 60000000 cycles: 51639758 heartbeat IPC: 0.437734 cumulative IPC: 0.475163 (Simulation time: 0 hr 40 min 50 sec) 
Heartbeat CPU 0 instructions: 61000003 cycles: 53960851 heartbeat IPC: 0.430833 cumulative IPC: 0.47076 (Simulation time: 0 hr 41 min 35 sec) 
Heartbeat CPU 0 instructions: 62000001 cycles: 56272526 heartbeat IPC: 0.432586 cumulative IPC: 0.467323 (Simulation time: 0 hr 42 min 29 sec) 
Heartbeat CPU 0 instructions: 63000000 cycles: 58211030 heartbeat IPC: 0.515861 cumulative IPC: 0.47073 (Simulation time: 0 hr 43 min 13 sec) 
Heartbeat CPU 0 instructions: 64000000 cycles: 59519720 heartbeat IPC: 0.764123 cumulative IPC: 0.484004 (Simulation time: 0 hr 43 min 53 sec) 
Heartbeat CPU 0 instructions: 65000000 cycles: 60880099 heartbeat IPC: 0.735089 cumulative IPC: 0.495283 (Simulation time: 0 hr 44 min 34 sec) 
Heartbeat CPU 0 instructions: 66000002 cycles: 62222855 heartbeat IPC: 0.744738 cumulative IPC: 0.505873 (Simulation time: 0 hr 45 min 15 sec) 
Heartbeat CPU 0 instructions: 67000000 cycles: 63554448 heartbeat IPC: 0.750979 cumulative IPC: 0.515775 (Simulation time: 0 hr 46 min 0 sec) 
Heartbeat CPU 0 instructions: 68000000 cycles: 64914121 heartbeat IPC: 0.735471 cumulative IPC: 0.524479 (Simulation time: 0 hr 46 min 38 sec) 
Heartbeat CPU 0 instructions: 69000000 cycles: 66226136 heartbeat IPC: 0.762186 cumulative IPC: 0.533232 (Simulation time: 0 hr 47 min 16 sec) 
Heartbeat CPU 0 instructions: 70000000 cycles: 67571157 heartbeat IPC: 0.743483 cumulative IPC: 0.54088 (Simulation time: 0 hr 47 min 56 sec) 
Heartbeat CPU 0 instructions: 71000000 cycles: 68877892 heartbeat IPC: 0.765266 cumulative IPC: 0.548539 (Simulation time: 0 hr 48 min 37 sec) 
Heartbeat CPU 0 instructions: 72000000 cycles: 70206083 heartbeat IPC: 0.752904 cumulative IPC: 0.555391 (Simulation time: 0 hr 49 min 16 sec) 
Heartbeat CPU 0 instructions: 73000000 cycles: 71544331 heartbeat IPC: 0.747246 cumulative IPC: 0.561661 (Simulation time: 0 hr 49 min 55 sec) 
Heartbeat CPU 0 instructions: 74000000 cycles: 72861977 heartbeat IPC: 0.758929 cumulative IPC: 0.567811 (Simulation time: 0 hr 50 min 36 sec) 
Heartbeat CPU 0 instructions: 75000003 cycles: 74231779 heartbeat IPC: 0.730035 cumulative IPC: 0.572903 (Simulation time: 0 hr 51 min 19 sec) 
Heartbeat CPU 0 instructions: 76000000 cycles: 75561785 heartbeat IPC: 0.751874 cumulative IPC: 0.578196 (Simulation time: 0 hr 52 min 0 sec) 
Heartbeat CPU 0 instructions: 77000000 cycles: 76931095 heartbeat IPC: 0.730295 cumulative IPC: 0.582691 (Simulation time: 0 hr 52 min 39 sec) 
Heartbeat CPU 0 instructions: 78000001 cycles: 78282338 heartbeat IPC: 0.74006 cumulative IPC: 0.58715 (Simulation time: 0 hr 53 min 20 sec) 
Heartbeat CPU 0 instructions: 79000002 cycles: 79637897 heartbeat IPC: 0.737704 cumulative IPC: 0.591311 (Simulation time: 0 hr 53 min 57 sec) 
Heartbeat CPU 0 instructions: 80000000 cycles: 81014065 heartbeat IPC: 0.726654 cumulative IPC: 0.595005 (Simulation time: 0 hr 54 min 44 sec) 
Heartbeat CPU 0 instructions: 81000000 cycles: 82351054 heartbeat IPC: 0.747949 cumulative IPC: 0.598956 (Simulation time: 0 hr 55 min 28 sec) 
Heartbeat CPU 0 instructions: 82000003 cycles: 83730698 heartbeat IPC: 0.724827 cumulative IPC: 0.602224 (Simulation time: 0 hr 56 min 6 sec) 
Heartbeat CPU 0 instructions: 83000001 cycles: 85080281 heartbeat IPC: 0.740968 cumulative IPC: 0.605661 (Simulation time: 0 hr 56 min 44 sec) 
Heartbeat CPU 0 instructions: 84000000 cycles: 86430544 heartbeat IPC: 0.740596 cumulative IPC: 0.608924 (Simulation time: 0 hr 57 min 26 sec) 
Heartbeat CPU 0 instructions: 85000001 cycles: 87767846 heartbeat IPC: 0.747775 cumulative IPC: 0.612172 (Simulation time: 0 hr 58 min 8 sec) 
Heartbeat CPU 0 instructions: 86000003 cycles: 89105448 heartbeat IPC: 0.747608 cumulative IPC: 0.615268 (Simulation time: 0 hr 58 min 48 sec) 
Heartbeat CPU 0 instructions: 87000001 cycles: 90452853 heartbeat IPC: 0.742166 cumulative IPC: 0.618124 (Simulation time: 0 hr 59 min 29 sec) 
Heartbeat CPU 0 instructions: 88000000 cycles: 91801186 heartbeat IPC: 0.741656 cumulative IPC: 0.620846 (Simulation time: 1 hr 0 min 12 sec) 
Heartbeat CPU 0 instructions: 89000001 cycles: 93158946 heartbeat IPC: 0.736508 cumulative IPC: 0.623356 (Simulation time: 1 hr 0 min 53 sec) 
Heartbeat CPU 0 instructions: 90000002 cycles: 94507740 heartbeat IPC: 0.741404 cumulative IPC: 0.625847 (Simulation time: 1 hr 1 min 33 sec) 
Heartbeat CPU 0 instructions: 91000000 cycles: 95865245 heartbeat IPC: 0.736644 cumulative IPC: 0.628151 (Simulation time: 1 hr 2 min 15 sec) 
Heartbeat CPU 0 instructions: 92000000 cycles: 97203121 heartbeat IPC: 0.747453 cumulative IPC: 0.630548 (Simulation time: 1 hr 2 min 58 sec) 
Heartbeat CPU 0 instructions: 93000002 cycles: 98569575 heartbeat IPC: 0.731823 cumulative IPC: 0.632583 (Simulation time: 1 hr 3 min 38 sec) 
Heartbeat CPU 0 instructions: 94000000 cycles: 99896260 heartbeat IPC: 0.753757 cumulative IPC: 0.634903 (Simulation time: 1 hr 4 min 16 sec) 
Heartbeat CPU 0 instructions: 95000003 cycles: 101224320 heartbeat IPC: 0.75298 cumulative IPC: 0.637123 (Simulation time: 1 hr 4 min 56 sec) 
Heartbeat CPU 0 instructions: 96000000 cycles: 102581980 heartbeat IPC: 0.736559 cumulative IPC: 0.638999 (Simulation time: 1 hr 5 min 43 sec) 
Heartbeat CPU 0 instructions: 97000001 cycles: 103911730 heartbeat IPC: 0.752022 cumulative IPC: 0.641049 (Simulation time: 1 hr 6 min 28 sec) 
Heartbeat CPU 0 instructions: 98000002 cycles: 105272412 heartbeat IPC: 0.734926 cumulative IPC: 0.642759 (Simulation time: 1 hr 7 min 7 sec) 
Heartbeat CPU 0 instructions: 99000000 cycles: 106604951 heartbeat IPC: 0.750446 cumulative IPC: 0.644647 (Simulation time: 1 hr 7 min 45 sec) 
Heartbeat CPU 0 instructions: 100000000 cycles: 107980132 heartbeat IPC: 0.727177 cumulative IPC: 0.646114 (Simulation time: 1 hr 8 min 23 sec) 
Heartbeat CPU 0 instructions: 101000000 cycles: 109335009 heartbeat IPC: 0.738074 cumulative IPC: 0.647696 (Simulation time: 1 hr 8 min 59 sec) 
Heartbeat CPU 0 instructions: 102000001 cycles: 110675609 heartbeat IPC: 0.745935 cumulative IPC: 0.649341 (Simulation time: 1 hr 9 min 35 sec) 
Heartbeat CPU 0 instructions: 103000002 cycles: 112040148 heartbeat IPC: 0.732849 cumulative IPC: 0.65074 (Simulation time: 1 hr 10 min 12 sec) 
Heartbeat CPU 0 instructions: 104000000 cycles: 113365501 heartbeat IPC: 0.754514 cumulative IPC: 0.652401 (Simulation time: 1 hr 10 min 54 sec) 
Heartbeat CPU 0 instructions: 105000001 cycles: 114745208 heartbeat IPC: 0.724792 cumulative IPC: 0.653588 (Simulation time: 1 hr 11 min 29 sec) 
Heartbeat CPU 0 instructions: 106000002 cycles: 116083673 heartbeat IPC: 0.747125 cumulative IPC: 0.655053 (Simulation time: 1 hr 12 min 5 sec) 
Heartbeat CPU 0 instructions: 107000000 cycles: 117433312 heartbeat IPC: 0.740937 cumulative IPC: 0.656387 (Simulation time: 1 hr 12 min 41 sec) 
Heartbeat CPU 0 instructions: 108000000 cycles: 118763961 heartbeat IPC: 0.751513 cumulative IPC: 0.657823 (Simulation time: 1 hr 13 min 25 sec) 
Heartbeat CPU 0 instructions: 109000003 cycles: 120087868 heartbeat IPC: 0.755342 cumulative IPC: 0.659266 (Simulation time: 1 hr 14 min 1 sec) 
Heartbeat CPU 0 instructions: 110000001 cycles: 121442250 heartbeat IPC: 0.738343 cumulative IPC: 0.660445 (Simulation time: 1 hr 14 min 35 sec) 
Heartbeat CPU 0 instructions: 111000001 cycles: 122742145 heartbeat IPC: 0.769293 cumulative IPC: 0.66198 (Simulation time: 1 hr 15 min 9 sec) 
Heartbeat CPU 0 instructions: 112000000 cycles: 124129336 heartbeat IPC: 0.720881 cumulative IPC: 0.662854 (Simulation time: 1 hr 15 min 41 sec) 
Heartbeat CPU 0 instructions: 113000000 cycles: 125756061 heartbeat IPC: 0.614732 cumulative IPC: 0.662031 (Simulation time: 1 hr 16 min 11 sec) 
Heartbeat CPU 0 instructions: 114000000 cycles: 127383869 heartbeat IPC: 0.614323 cumulative IPC: 0.661229 (Simulation time: 1 hr 16 min 38 sec) 
Heartbeat CPU 0 instructions: 115000000 cycles: 129016742 heartbeat IPC: 0.612418 cumulative IPC: 0.660419 (Simulation time: 1 hr 17 min 5 sec) 
Heartbeat CPU 0 instructions: 116000000 cycles: 130649127 heartbeat IPC: 0.612601 cumulative IPC: 0.659639 (Simulation time: 1 hr 17 min 31 sec) 
Heartbeat CPU 0 instructions: 117000002 cycles: 132285402 heartbeat IPC: 0.611145 cumulative IPC: 0.658858 (Simulation time: 1 hr 17 min 55 sec) 
Heartbeat CPU 0 instructions: 118000000 cycles: 133911145 heartbeat IPC: 0.615102 cumulative IPC: 0.65817 (Simulation time: 1 hr 18 min 24 sec) 
Heartbeat CPU 0 instructions: 119000003 cycles: 135548294 heartbeat IPC: 0.61082 cumulative IPC: 0.657431 (Simulation time: 1 hr 18 min 49 sec) 
Heartbeat CPU 0 instructions: 120000000 cycles: 137209590 heartbeat IPC: 0.601938 cumulative IPC: 0.656567 (Simulation time: 1 hr 19 min 12 sec) 
Heartbeat CPU 0 instructions: 121000002 cycles: 138857801 heartbeat IPC: 0.60672 cumulative IPC: 0.655808 (Simulation time: 1 hr 19 min 36 sec) 
Heartbeat CPU 0 instructions: 122000000 cycles: 140526801 heartbeat IPC: 0.59916 cumulative IPC: 0.654948 (Simulation time: 1 hr 20 min 0 sec) 
Heartbeat CPU 0 instructions: 123000002 cycles: 142157726 heartbeat IPC: 0.61315 cumulative IPC: 0.654337 (Simulation time: 1 hr 20 min 22 sec) 
Heartbeat CPU 0 instructions: 124000000 cycles: 143798486 heartbeat IPC: 0.609472 cumulative IPC: 0.653686 (Simulation time: 1 hr 20 min 45 sec) 
Heartbeat CPU 0 instructions: 125000003 cycles: 145445543 heartbeat IPC: 0.607145 cumulative IPC: 0.653019 (Simulation time: 1 hr 21 min 7 sec) 
Heartbeat CPU 0 instructions: 126000000 cycles: 147074565 heartbeat IPC: 0.613863 cumulative IPC: 0.652471 (Simulation time: 1 hr 21 min 30 sec) 
Heartbeat CPU 0 instructions: 127000001 cycles: 148758328 heartbeat IPC: 0.593908 cumulative IPC: 0.651637 (Simulation time: 1 hr 21 min 52 sec) 
Heartbeat CPU 0 instructions: 128000000 cycles: 150391636 heartbeat IPC: 0.612254 cumulative IPC: 0.6511 (Simulation time: 1 hr 22 min 15 sec) 
Heartbeat CPU 0 instructions: 129000001 cycles: 152020513 heartbeat IPC: 0.613921 cumulative IPC: 0.650601 (Simulation time: 1 hr 22 min 35 sec) 
Heartbeat CPU 0 instructions: 130000003 cycles: 153685621 heartbeat IPC: 0.600563 cumulative IPC: 0.649924 (Simulation time: 1 hr 22 min 55 sec) 
Heartbeat CPU 0 instructions: 131000001 cycles: 158880338 heartbeat IPC: 0.192503 cumulative IPC: 0.631402 (Simulation time: 1 hr 23 min 31 sec) 
Heartbeat CPU 0 instructions: 132000000 cycles: 161959446 heartbeat IPC: 0.324769 cumulative IPC: 0.624215 (Simulation time: 1 hr 24 min 6 sec) 
Heartbeat CPU 0 instructions: 133000003 cycles: 164640863 heartbeat IPC: 0.372938 cumulative IPC: 0.619188 (Simulation time: 1 hr 24 min 34 sec) 
Heartbeat CPU 0 instructions: 134000000 cycles: 165908750 heartbeat IPC: 0.788711 cumulative IPC: 0.620777 (Simulation time: 1 hr 24 min 48 sec) 
Heartbeat CPU 0 instructions: 135000001 cycles: 167177494 heartbeat IPC: 0.788182 cumulative IPC: 0.622332 (Simulation time: 1 hr 25 min 3 sec) 
Heartbeat CPU 0 instructions: 136000000 cycles: 168544664 heartbeat IPC: 0.731437 cumulative IPC: 0.623413 (Simulation time: 1 hr 25 min 18 sec) 
Heartbeat CPU 0 instructions: 137000001 cycles: 169978282 heartbeat IPC: 0.697537 cumulative IPC: 0.624175 (Simulation time: 1 hr 25 min 33 sec) 
Heartbeat CPU 0 instructions: 138000003 cycles: 171436187 heartbeat IPC: 0.685917 cumulative IPC: 0.624814 (Simulation time: 1 hr 25 min 47 sec) 
Heartbeat CPU 0 instructions: 139000001 cycles: 172859072 heartbeat IPC: 0.702796 cumulative IPC: 0.625594 (Simulation time: 1 hr 26 min 1 sec) 
Heartbeat CPU 0 instructions: 140000000 cycles: 174297663 heartbeat IPC: 0.695124 cumulative IPC: 0.62629 (Simulation time: 1 hr 26 min 17 sec) 
Heartbeat CPU 0 instructions: 141000003 cycles: 175741212 heartbeat IPC: 0.692739 cumulative IPC: 0.626951 (Simulation time: 1 hr 26 min 31 sec) 
Heartbeat CPU 0 instructions: 142000003 cycles: 177201101 heartbeat IPC: 0.684984 cumulative IPC: 0.627529 (Simulation time: 1 hr 26 min 45 sec) 
Heartbeat CPU 0 instructions: 143000000 cycles: 178626658 heartbeat IPC: 0.701478 cumulative IPC: 0.628241 (Simulation time: 1 hr 26 min 59 sec) 
Heartbeat CPU 0 instructions: 144000000 cycles: 180067839 heartbeat IPC: 0.693875 cumulative IPC: 0.628874 (Simulation time: 1 hr 27 min 12 sec) 
Heartbeat CPU 0 instructions: 145000001 cycles: 181540401 heartbeat IPC: 0.679089 cumulative IPC: 0.629364 (Simulation time: 1 hr 27 min 25 sec) 
Heartbeat CPU 0 instructions: 146000003 cycles: 182988133 heartbeat IPC: 0.690737 cumulative IPC: 0.629947 (Simulation time: 1 hr 27 min 37 sec) 
Heartbeat CPU 0 instructions: 147000001 cycles: 184971428 heartbeat IPC: 0.50421 cumulative IPC: 0.628332 (Simulation time: 1 hr 27 min 51 sec) 
Heartbeat CPU 0 instructions: 148000000 cycles: 187272311 heartbeat IPC: 0.434615 cumulative IPC: 0.625487 (Simulation time: 1 hr 28 min 5 sec) 
Heartbeat CPU 0 instructions: 149000003 cycles: 189587594 heartbeat IPC: 0.431914 cumulative IPC: 0.622668 (Simulation time: 1 hr 28 min 20 sec) 
Heartbeat CPU 0 instructions: 150000001 cycles: 191927742 heartbeat IPC: 0.427323 cumulative IPC: 0.619835 (Simulation time: 1 hr 28 min 35 sec) 
Finished CPU 0 instructions: 100000000 cycles: 161333383 cummulative IPC: 0.619835 (Simulation time: 1 hr 28 min 35 sec) 

ChampSim completed all CPUs

Region of Interest Statistics

CPU 0 cummulative IPC: 0.619835 instructions: 100000000 cycles: 161333383
LLC TOTAL     ACCESS:    4662536  HIT:     476254  MISS:    4186282
LLC LOAD      ACCESS:     473132  HIT:      54735  MISS:     418397
LLC RFO       ACCESS:     795548  HIT:     111419  MISS:     684129
LLC PREFETCH  ACCESS:    2249502  HIT:     137538  MISS:    2111964
LLC WRITEBACK ACCESS:    1144354  HIT:     172562  MISS:     971792
