
*** ChampSim Multicore Out-of-Order Simulator ***

Warmup Instructions: 50000000
Simulation Instructions: 100000000
Configuration: 2
Number of CPUs: 1
LLC sets: 2048
LLC ways: 16
Off-chip DRAM Channels: 1 Width: 64-bit Data Rate: 1600 MT/s

CPU 0 runs /datasets/cs240c-wi22-a00-public/data/Assignment2-gz/lbm_1004B.trace.gz
CPU 0 L1D next line prefetcher
CPU 0 L2C IP-based stride prefetcher
config 2, num_core 1, llc_sets 2048
Heartbeat CPU 0 instructions: 1000002 cycles: 391414 heartbeat IPC: 2.55484 cumulative IPC: 2.55484 (Simulation time: 0 hr 0 min 39 sec) 
Heartbeat CPU 0 instructions: 2000001 cycles: 782838 heartbeat IPC: 2.55477 cumulative IPC: 2.55481 (Simulation time: 0 hr 1 min 15 sec) 
Heartbeat CPU 0 instructions: 3000001 cycles: 1174187 heartbeat IPC: 2.55526 cumulative IPC: 2.55496 (Simulation time: 0 hr 1 min 53 sec) 
Heartbeat CPU 0 instructions: 4000000 cycles: 1570381 heartbeat IPC: 2.52401 cumulative IPC: 2.54715 (Simulation time: 0 hr 2 min 28 sec) 
Heartbeat CPU 0 instructions: 5000002 cycles: 1961799 heartbeat IPC: 2.55482 cumulative IPC: 2.54868 (Simulation time: 0 hr 2 min 58 sec) 
Heartbeat CPU 0 instructions: 6000002 cycles: 2353167 heartbeat IPC: 2.55514 cumulative IPC: 2.54976 (Simulation time: 0 hr 3 min 34 sec) 
Heartbeat CPU 0 instructions: 7000003 cycles: 2749275 heartbeat IPC: 2.52457 cumulative IPC: 2.54613 (Simulation time: 0 hr 4 min 12 sec) 
Heartbeat CPU 0 instructions: 8000000 cycles: 3140640 heartbeat IPC: 2.55515 cumulative IPC: 2.54725 (Simulation time: 0 hr 4 min 43 sec) 
Heartbeat CPU 0 instructions: 9000003 cycles: 3532088 heartbeat IPC: 2.55463 cumulative IPC: 2.54807 (Simulation time: 0 hr 5 min 14 sec) 
Heartbeat CPU 0 instructions: 10000000 cycles: 3923462 heartbeat IPC: 2.55509 cumulative IPC: 2.54877 (Simulation time: 0 hr 5 min 50 sec) 
Heartbeat CPU 0 instructions: 11000000 cycles: 4319702 heartbeat IPC: 2.52372 cumulative IPC: 2.54647 (Simulation time: 0 hr 6 min 22 sec) 
Heartbeat CPU 0 instructions: 12000000 cycles: 4711031 heartbeat IPC: 2.55539 cumulative IPC: 2.54721 (Simulation time: 0 hr 6 min 56 sec) 
Heartbeat CPU 0 instructions: 13000002 cycles: 5102462 heartbeat IPC: 2.55473 cumulative IPC: 2.54779 (Simulation time: 0 hr 7 min 32 sec) 
Heartbeat CPU 0 instructions: 14000003 cycles: 5498638 heartbeat IPC: 2.52413 cumulative IPC: 2.54609 (Simulation time: 0 hr 8 min 7 sec) 
Heartbeat CPU 0 instructions: 15000003 cycles: 5890066 heartbeat IPC: 2.55475 cumulative IPC: 2.54666 (Simulation time: 0 hr 8 min 41 sec) 
Heartbeat CPU 0 instructions: 16000000 cycles: 6281457 heartbeat IPC: 2.55498 cumulative IPC: 2.54718 (Simulation time: 0 hr 9 min 16 sec) 
Heartbeat CPU 0 instructions: 17000000 cycles: 6677622 heartbeat IPC: 2.5242 cumulative IPC: 2.54582 (Simulation time: 0 hr 9 min 50 sec) 
Heartbeat CPU 0 instructions: 18000000 cycles: 7069005 heartbeat IPC: 2.55504 cumulative IPC: 2.54633 (Simulation time: 0 hr 10 min 21 sec) 
Heartbeat CPU 0 instructions: 19000003 cycles: 7460353 heartbeat IPC: 2.55528 cumulative IPC: 2.5468 (Simulation time: 0 hr 10 min 54 sec) 
Heartbeat CPU 0 instructions: 20000000 cycles: 7851762 heartbeat IPC: 2.55486 cumulative IPC: 2.5472 (Simulation time: 0 hr 11 min 28 sec) 
Heartbeat CPU 0 instructions: 21000003 cycles: 8247933 heartbeat IPC: 2.52417 cumulative IPC: 2.54609 (Simulation time: 0 hr 12 min 4 sec) 
Heartbeat CPU 0 instructions: 22000002 cycles: 8639389 heartbeat IPC: 2.55456 cumulative IPC: 2.54648 (Simulation time: 0 hr 12 min 38 sec) 
Heartbeat CPU 0 instructions: 23000001 cycles: 9030710 heartbeat IPC: 2.55544 cumulative IPC: 2.54687 (Simulation time: 0 hr 13 min 10 sec) 
Heartbeat CPU 0 instructions: 24000000 cycles: 9426924 heartbeat IPC: 2.52389 cumulative IPC: 2.5459 (Simulation time: 0 hr 13 min 42 sec) 
Heartbeat CPU 0 instructions: 25000003 cycles: 9818326 heartbeat IPC: 2.55493 cumulative IPC: 2.54626 (Simulation time: 0 hr 14 min 15 sec) 
Heartbeat CPU 0 instructions: 26000002 cycles: 10209695 heartbeat IPC: 2.55513 cumulative IPC: 2.5466 (Simulation time: 0 hr 14 min 47 sec) 
Heartbeat CPU 0 instructions: 27000001 cycles: 10601050 heartbeat IPC: 2.55522 cumulative IPC: 2.54692 (Simulation time: 0 hr 15 min 19 sec) 
Heartbeat CPU 0 instructions: 28000000 cycles: 10997233 heartbeat IPC: 2.52408 cumulative IPC: 2.54609 (Simulation time: 0 hr 15 min 47 sec) 
Heartbeat CPU 0 instructions: 29000002 cycles: 11388623 heartbeat IPC: 2.555 cumulative IPC: 2.5464 (Simulation time: 0 hr 16 min 16 sec) 
Heartbeat CPU 0 instructions: 30000003 cycles: 11779996 heartbeat IPC: 2.55511 cumulative IPC: 2.54669 (Simulation time: 0 hr 16 min 47 sec) 
Heartbeat CPU 0 instructions: 31000003 cycles: 12176222 heartbeat IPC: 2.52381 cumulative IPC: 2.54595 (Simulation time: 0 hr 17 min 18 sec) 
Heartbeat CPU 0 instructions: 32000000 cycles: 12567605 heartbeat IPC: 2.55503 cumulative IPC: 2.54623 (Simulation time: 0 hr 17 min 49 sec) 
Heartbeat CPU 0 instructions: 33000003 cycles: 12959032 heartbeat IPC: 2.55476 cumulative IPC: 2.54649 (Simulation time: 0 hr 18 min 18 sec) 
Heartbeat CPU 0 instructions: 34000002 cycles: 13355142 heartbeat IPC: 2.52455 cumulative IPC: 2.54584 (Simulation time: 0 hr 18 min 49 sec) 
Heartbeat CPU 0 instructions: 35000003 cycles: 13746561 heartbeat IPC: 2.55481 cumulative IPC: 2.54609 (Simulation time: 0 hr 19 min 21 sec) 
Heartbeat CPU 0 instructions: 36000000 cycles: 14137961 heartbeat IPC: 2.55492 cumulative IPC: 2.54634 (Simulation time: 0 hr 19 min 49 sec) 
Heartbeat CPU 0 instructions: 37000002 cycles: 14529350 heartbeat IPC: 2.55501 cumulative IPC: 2.54657 (Simulation time: 0 hr 20 min 19 sec) 
Heartbeat CPU 0 instructions: 38000000 cycles: 14925541 heartbeat IPC: 2.52403 cumulative IPC: 2.54597 (Simulation time: 0 hr 20 min 50 sec) 
Heartbeat CPU 0 instructions: 39000003 cycles: 15316864 heartbeat IPC: 2.55544 cumulative IPC: 2.54621 (Simulation time: 0 hr 21 min 22 sec) 
Heartbeat CPU 0 instructions: 40000000 cycles: 15708236 heartbeat IPC: 2.55511 cumulative IPC: 2.54643 (Simulation time: 0 hr 21 min 55 sec) 
Heartbeat CPU 0 instructions: 41000002 cycles: 16104435 heartbeat IPC: 2.52399 cumulative IPC: 2.54588 (Simulation time: 0 hr 22 min 24 sec) 
Heartbeat CPU 0 instructions: 42000003 cycles: 16495873 heartbeat IPC: 2.55469 cumulative IPC: 2.54609 (Simulation time: 0 hr 22 min 55 sec) 
Heartbeat CPU 0 instructions: 43000000 cycles: 16887253 heartbeat IPC: 2.55505 cumulative IPC: 2.5463 (Simulation time: 0 hr 23 min 24 sec) 
Heartbeat CPU 0 instructions: 44000000 cycles: 17283420 heartbeat IPC: 2.52419 cumulative IPC: 2.54579 (Simulation time: 0 hr 23 min 53 sec) 
Heartbeat CPU 0 instructions: 45000003 cycles: 17674819 heartbeat IPC: 2.55495 cumulative IPC: 2.546 (Simulation time: 0 hr 24 min 24 sec) 
Heartbeat CPU 0 instructions: 46000003 cycles: 18066173 heartbeat IPC: 2.55523 cumulative IPC: 2.5462 (Simulation time: 0 hr 24 min 52 sec) 
Heartbeat CPU 0 instructions: 47000002 cycles: 18457567 heartbeat IPC: 2.55497 cumulative IPC: 2.54638 (Simulation time: 0 hr 25 min 23 sec) 
Heartbeat CPU 0 instructions: 48000000 cycles: 18853737 heartbeat IPC: 2.52416 cumulative IPC: 2.54591 (Simulation time: 0 hr 25 min 52 sec) 
Heartbeat CPU 0 instructions: 49000000 cycles: 19245163 heartbeat IPC: 2.55476 cumulative IPC: 2.54609 (Simulation time: 0 hr 26 min 23 sec) 
Heartbeat CPU 0 instructions: 50000003 cycles: 19636498 heartbeat IPC: 2.55536 cumulative IPC: 2.54628 (Simulation time: 0 hr 26 min 55 sec) 

Warmup complete CPU 0 instructions: 50000003 cycles: 19636498 (Simulation time: 0 hr 26 min 55 sec) 

Heartbeat CPU 0 instructions: 51000001 cycles: 20871399 heartbeat IPC: 0.80978 cumulative IPC: 0.80978 (Simulation time: 0 hr 27 min 31 sec) 
Heartbeat CPU 0 instructions: 52000000 cycles: 22234420 heartbeat IPC: 0.733664 cumulative IPC: 0.769845 (Simulation time: 0 hr 28 min 6 sec) 
Heartbeat CPU 0 instructions: 53000002 cycles: 23656888 heartbeat IPC: 0.703005 cumulative IPC: 0.746196 (Simulation time: 0 hr 28 min 41 sec) 
Heartbeat CPU 0 instructions: 54000002 cycles: 24967946 heartbeat IPC: 0.762743 cumulative IPC: 0.750265 (Simulation time: 0 hr 29 min 17 sec) 
Heartbeat CPU 0 instructions: 55000001 cycles: 26321343 heartbeat IPC: 0.738881 cumulative IPC: 0.74796 (Simulation time: 0 hr 29 min 51 sec) 
Heartbeat CPU 0 instructions: 56000000 cycles: 27764420 heartbeat IPC: 0.692963 cumulative IPC: 0.738196 (Simulation time: 0 hr 30 min 30 sec) 
Heartbeat CPU 0 instructions: 57000003 cycles: 29144700 heartbeat IPC: 0.724493 cumulative IPC: 0.736206 (Simulation time: 0 hr 31 min 7 sec) 
Heartbeat CPU 0 instructions: 58000003 cycles: 30475980 heartbeat IPC: 0.751157 cumulative IPC: 0.738043 (Simulation time: 0 hr 31 min 43 sec) 
Heartbeat CPU 0 instructions: 59000002 cycles: 31808226 heartbeat IPC: 0.750611 cumulative IPC: 0.739418 (Simulation time: 0 hr 32 min 21 sec) 
Heartbeat CPU 0 instructions: 60000000 cycles: 33219210 heartbeat IPC: 0.708724 cumulative IPC: 0.73623 (Simulation time: 0 hr 32 min 56 sec) 
Heartbeat CPU 0 instructions: 61000003 cycles: 34585627 heartbeat IPC: 0.731843 cumulative IPC: 0.735829 (Simulation time: 0 hr 33 min 34 sec) 
Heartbeat CPU 0 instructions: 62000001 cycles: 35864842 heartbeat IPC: 0.781728 cumulative IPC: 0.739447 (Simulation time: 0 hr 34 min 9 sec) 
Heartbeat CPU 0 instructions: 63000001 cycles: 37219493 heartbeat IPC: 0.738198 cumulative IPC: 0.739351 (Simulation time: 0 hr 34 min 44 sec) 
Heartbeat CPU 0 instructions: 64000000 cycles: 38635374 heartbeat IPC: 0.706273 cumulative IPC: 0.736886 (Simulation time: 0 hr 35 min 18 sec) 
Heartbeat CPU 0 instructions: 65000000 cycles: 39995841 heartbeat IPC: 0.735042 cumulative IPC: 0.736762 (Simulation time: 0 hr 35 min 55 sec) 
Heartbeat CPU 0 instructions: 66000000 cycles: 41298941 heartbeat IPC: 0.767401 cumulative IPC: 0.738605 (Simulation time: 0 hr 36 min 31 sec) 
Heartbeat CPU 0 instructions: 67000000 cycles: 42677463 heartbeat IPC: 0.725415 cumulative IPC: 0.737816 (Simulation time: 0 hr 37 min 4 sec) 
Heartbeat CPU 0 instructions: 68000000 cycles: 44090243 heartbeat IPC: 0.707824 cumulative IPC: 0.736083 (Simulation time: 0 hr 37 min 39 sec) 
Heartbeat CPU 0 instructions: 69000000 cycles: 45408480 heartbeat IPC: 0.758589 cumulative IPC: 0.737235 (Simulation time: 0 hr 38 min 12 sec) 
Heartbeat CPU 0 instructions: 70000000 cycles: 46719624 heartbeat IPC: 0.762693 cumulative IPC: 0.738467 (Simulation time: 0 hr 38 min 48 sec) 
Heartbeat CPU 0 instructions: 71000002 cycles: 48117381 heartbeat IPC: 0.715433 cumulative IPC: 0.737337 (Simulation time: 0 hr 39 min 22 sec) 
Heartbeat CPU 0 instructions: 72000000 cycles: 50223704 heartbeat IPC: 0.47476 cumulative IPC: 0.719255 (Simulation time: 0 hr 40 min 8 sec) 
Heartbeat CPU 0 instructions: 73000002 cycles: 53138317 heartbeat IPC: 0.343099 cumulative IPC: 0.68653 (Simulation time: 0 hr 41 min 2 sec) 
Heartbeat CPU 0 instructions: 74000002 cycles: 59295487 heartbeat IPC: 0.162412 cumulative IPC: 0.605159 (Simulation time: 0 hr 42 min 34 sec) 
Heartbeat CPU 0 instructions: 75000000 cycles: 61625352 heartbeat IPC: 0.429209 cumulative IPC: 0.595396 (Simulation time: 0 hr 43 min 20 sec) 
Heartbeat CPU 0 instructions: 76000000 cycles: 63648828 heartbeat IPC: 0.494199 cumulative IPC: 0.590743 (Simulation time: 0 hr 44 min 4 sec) 
Heartbeat CPU 0 instructions: 77000000 cycles: 65121938 heartbeat IPC: 0.678836 cumulative IPC: 0.593596 (Simulation time: 0 hr 44 min 40 sec) 
Heartbeat CPU 0 instructions: 78000002 cycles: 66572515 heartbeat IPC: 0.689382 cumulative IPC: 0.596557 (Simulation time: 0 hr 45 min 20 sec) 
Heartbeat CPU 0 instructions: 79000000 cycles: 68068959 heartbeat IPC: 0.66825 cumulative IPC: 0.598772 (Simulation time: 0 hr 45 min 59 sec) 
Heartbeat CPU 0 instructions: 80000000 cycles: 69466236 heartbeat IPC: 0.715678 cumulative IPC: 0.60205 (Simulation time: 0 hr 46 min 39 sec) 
Heartbeat CPU 0 instructions: 81000001 cycles: 70860516 heartbeat IPC: 0.717217 cumulative IPC: 0.605185 (Simulation time: 0 hr 47 min 17 sec) 
Heartbeat CPU 0 instructions: 82000002 cycles: 72297750 heartbeat IPC: 0.695782 cumulative IPC: 0.607657 (Simulation time: 0 hr 47 min 52 sec) 
Heartbeat CPU 0 instructions: 83000003 cycles: 73733459 heartbeat IPC: 0.696521 cumulative IPC: 0.610016 (Simulation time: 0 hr 48 min 29 sec) 
Heartbeat CPU 0 instructions: 84000000 cycles: 75033909 heartbeat IPC: 0.768962 cumulative IPC: 0.613747 (Simulation time: 0 hr 49 min 4 sec) 
Heartbeat CPU 0 instructions: 85000000 cycles: 76388993 heartbeat IPC: 0.737962 cumulative IPC: 0.616713 (Simulation time: 0 hr 49 min 37 sec) 
Heartbeat CPU 0 instructions: 86000000 cycles: 77887010 heartbeat IPC: 0.667549 cumulative IPC: 0.61802 (Simulation time: 0 hr 50 min 11 sec) 
Heartbeat CPU 0 instructions: 87000002 cycles: 79132839 heartbeat IPC: 0.80268 cumulative IPC: 0.621887 (Simulation time: 0 hr 50 min 44 sec) 
Heartbeat CPU 0 instructions: 88000000 cycles: 80407013 heartbeat IPC: 0.784821 cumulative IPC: 0.625303 (Simulation time: 0 hr 51 min 15 sec) 
Heartbeat CPU 0 instructions: 89000003 cycles: 81832341 heartbeat IPC: 0.701595 cumulative IPC: 0.627052 (Simulation time: 0 hr 51 min 50 sec) 
Heartbeat CPU 0 instructions: 90000002 cycles: 83226133 heartbeat IPC: 0.717466 cumulative IPC: 0.629033 (Simulation time: 0 hr 52 min 23 sec) 
Heartbeat CPU 0 instructions: 91000001 cycles: 84442826 heartbeat IPC: 0.821899 cumulative IPC: 0.632654 (Simulation time: 0 hr 52 min 56 sec) 
Heartbeat CPU 0 instructions: 92000000 cycles: 85846406 heartbeat IPC: 0.712463 cumulative IPC: 0.634346 (Simulation time: 0 hr 53 min 29 sec) 
Heartbeat CPU 0 instructions: 93000003 cycles: 87355600 heartbeat IPC: 0.662607 cumulative IPC: 0.634976 (Simulation time: 0 hr 54 min 4 sec) 
Heartbeat CPU 0 instructions: 94000003 cycles: 88627178 heartbeat IPC: 0.786424 cumulative IPC: 0.637767 (Simulation time: 0 hr 54 min 40 sec) 
Heartbeat CPU 0 instructions: 95000000 cycles: 89855822 heartbeat IPC: 0.813903 cumulative IPC: 0.640849 (Simulation time: 0 hr 55 min 13 sec) 
Heartbeat CPU 0 instructions: 96000000 cycles: 91361322 heartbeat IPC: 0.664231 cumulative IPC: 0.64134 (Simulation time: 0 hr 55 min 50 sec) 
Heartbeat CPU 0 instructions: 97000002 cycles: 92752628 heartbeat IPC: 0.718751 cumulative IPC: 0.642813 (Simulation time: 0 hr 56 min 29 sec) 
Heartbeat CPU 0 instructions: 98000001 cycles: 93965670 heartbeat IPC: 0.824373 cumulative IPC: 0.645776 (Simulation time: 0 hr 57 min 4 sec) 
Heartbeat CPU 0 instructions: 99000000 cycles: 95268966 heartbeat IPC: 0.767285 cumulative IPC: 0.64787 (Simulation time: 0 hr 57 min 42 sec) 
Heartbeat CPU 0 instructions: 100000000 cycles: 96778256 heartbeat IPC: 0.662563 cumulative IPC: 0.648157 (Simulation time: 0 hr 58 min 19 sec) 
Heartbeat CPU 0 instructions: 101000000 cycles: 98091291 heartbeat IPC: 0.761594 cumulative IPC: 0.650056 (Simulation time: 0 hr 58 min 57 sec) 
Heartbeat CPU 0 instructions: 102000000 cycles: 99314033 heartbeat IPC: 0.817834 cumulative IPC: 0.652631 (Simulation time: 0 hr 59 min 30 sec) 
Heartbeat CPU 0 instructions: 103000001 cycles: 100807042 heartbeat IPC: 0.669789 cumulative IPC: 0.652946 (Simulation time: 1 hr 0 min 5 sec) 
Heartbeat CPU 0 instructions: 104000000 cycles: 102229198 heartbeat IPC: 0.703157 cumulative IPC: 0.653811 (Simulation time: 1 hr 0 min 40 sec) 
Heartbeat CPU 0 instructions: 105000001 cycles: 103464493 heartbeat IPC: 0.809524 cumulative IPC: 0.656105 (Simulation time: 1 hr 1 min 17 sec) 
Heartbeat CPU 0 instructions: 106000000 cycles: 104763920 heartbeat IPC: 0.769569 cumulative IPC: 0.657837 (Simulation time: 1 hr 1 min 51 sec) 
Heartbeat CPU 0 instructions: 107000000 cycles: 106319480 heartbeat IPC: 0.642855 cumulative IPC: 0.657568 (Simulation time: 1 hr 2 min 29 sec) 
Heartbeat CPU 0 instructions: 108000000 cycles: 107631168 heartbeat IPC: 0.762376 cumulative IPC: 0.659131 (Simulation time: 1 hr 3 min 3 sec) 
Heartbeat CPU 0 instructions: 109000003 cycles: 108873259 heartbeat IPC: 0.805096 cumulative IPC: 0.661162 (Simulation time: 1 hr 3 min 36 sec) 
Heartbeat CPU 0 instructions: 110000001 cycles: 110370837 heartbeat IPC: 0.667744 cumulative IPC: 0.661271 (Simulation time: 1 hr 4 min 12 sec) 
Heartbeat CPU 0 instructions: 111000003 cycles: 111841298 heartbeat IPC: 0.68006 cumulative IPC: 0.661571 (Simulation time: 1 hr 4 min 48 sec) 
Heartbeat CPU 0 instructions: 112000000 cycles: 113098350 heartbeat IPC: 0.79551 cumulative IPC: 0.663372 (Simulation time: 1 hr 5 min 24 sec) 
Heartbeat CPU 0 instructions: 113000001 cycles: 114522327 heartbeat IPC: 0.702259 cumulative IPC: 0.663956 (Simulation time: 1 hr 5 min 59 sec) 
Heartbeat CPU 0 instructions: 114000001 cycles: 116079849 heartbeat IPC: 0.642045 cumulative IPC: 0.663602 (Simulation time: 1 hr 6 min 41 sec) 
Heartbeat CPU 0 instructions: 115000000 cycles: 117380458 heartbeat IPC: 0.76887 cumulative IPC: 0.665003 (Simulation time: 1 hr 7 min 16 sec) 
Heartbeat CPU 0 instructions: 116000000 cycles: 118687257 heartbeat IPC: 0.765229 cumulative IPC: 0.666325 (Simulation time: 1 hr 7 min 53 sec) 
Heartbeat CPU 0 instructions: 117000000 cycles: 120285263 heartbeat IPC: 0.62578 cumulative IPC: 0.665681 (Simulation time: 1 hr 8 min 27 sec) 
Heartbeat CPU 0 instructions: 118000002 cycles: 121653543 heartbeat IPC: 0.730846 cumulative IPC: 0.666555 (Simulation time: 1 hr 8 min 57 sec) 
Heartbeat CPU 0 instructions: 119000002 cycles: 122854606 heartbeat IPC: 0.832596 cumulative IPC: 0.668487 (Simulation time: 1 hr 9 min 28 sec) 
Heartbeat CPU 0 instructions: 120000000 cycles: 124434068 heartbeat IPC: 0.633126 cumulative IPC: 0.667954 (Simulation time: 1 hr 10 min 3 sec) 
Heartbeat CPU 0 instructions: 121000002 cycles: 125926719 heartbeat IPC: 0.66995 cumulative IPC: 0.667982 (Simulation time: 1 hr 10 min 35 sec) 
Heartbeat CPU 0 instructions: 122000002 cycles: 127148382 heartbeat IPC: 0.818556 cumulative IPC: 0.669693 (Simulation time: 1 hr 11 min 3 sec) 
Heartbeat CPU 0 instructions: 123000002 cycles: 128546156 heartbeat IPC: 0.715423 cumulative IPC: 0.67028 (Simulation time: 1 hr 11 min 34 sec) 
Heartbeat CPU 0 instructions: 124000000 cycles: 130155774 heartbeat IPC: 0.621264 cumulative IPC: 0.669566 (Simulation time: 1 hr 12 min 5 sec) 
Heartbeat CPU 0 instructions: 125000000 cycles: 131468107 heartbeat IPC: 0.762002 cumulative IPC: 0.670651 (Simulation time: 1 hr 12 min 36 sec) 
Heartbeat CPU 0 instructions: 126000002 cycles: 132831185 heartbeat IPC: 0.733635 cumulative IPC: 0.67141 (Simulation time: 1 hr 13 min 10 sec) 
Heartbeat CPU 0 instructions: 127000000 cycles: 134515699 heartbeat IPC: 0.593642 cumulative IPC: 0.670269 (Simulation time: 1 hr 13 min 45 sec) 
Heartbeat CPU 0 instructions: 128000000 cycles: 135889144 heartbeat IPC: 0.728096 cumulative IPC: 0.670952 (Simulation time: 1 hr 14 min 15 sec) 
Heartbeat CPU 0 instructions: 129000000 cycles: 137215841 heartbeat IPC: 0.753752 cumulative IPC: 0.671887 (Simulation time: 1 hr 14 min 43 sec) 
Heartbeat CPU 0 instructions: 130000000 cycles: 138871841 heartbeat IPC: 0.603865 cumulative IPC: 0.670942 (Simulation time: 1 hr 15 min 14 sec) 
Heartbeat CPU 0 instructions: 131000000 cycles: 140285591 heartbeat IPC: 0.707339 cumulative IPC: 0.671368 (Simulation time: 1 hr 15 min 40 sec) 
Heartbeat CPU 0 instructions: 132000000 cycles: 141593858 heartbeat IPC: 0.76437 cumulative IPC: 0.672366 (Simulation time: 1 hr 16 min 7 sec) 
Heartbeat CPU 0 instructions: 133000001 cycles: 143184385 heartbeat IPC: 0.628723 cumulative IPC: 0.671804 (Simulation time: 1 hr 16 min 33 sec) 
Heartbeat CPU 0 instructions: 134000000 cycles: 144601885 heartbeat IPC: 0.705467 cumulative IPC: 0.672186 (Simulation time: 1 hr 16 min 57 sec) 
Heartbeat CPU 0 instructions: 135000003 cycles: 145977781 heartbeat IPC: 0.726801 cumulative IPC: 0.672781 (Simulation time: 1 hr 17 min 20 sec) 
Heartbeat CPU 0 instructions: 136000000 cycles: 147578093 heartbeat IPC: 0.624876 cumulative IPC: 0.672182 (Simulation time: 1 hr 17 min 43 sec) 
Heartbeat CPU 0 instructions: 137000000 cycles: 148968138 heartbeat IPC: 0.719401 cumulative IPC: 0.672689 (Simulation time: 1 hr 18 min 6 sec) 
Heartbeat CPU 0 instructions: 138000003 cycles: 150346359 heartbeat IPC: 0.725575 cumulative IPC: 0.673247 (Simulation time: 1 hr 18 min 27 sec) 
Heartbeat CPU 0 instructions: 139000000 cycles: 151993909 heartbeat IPC: 0.60696 cumulative IPC: 0.672422 (Simulation time: 1 hr 18 min 49 sec) 
Heartbeat CPU 0 instructions: 140000000 cycles: 153366774 heartbeat IPC: 0.728404 cumulative IPC: 0.672996 (Simulation time: 1 hr 19 min 11 sec) 
Heartbeat CPU 0 instructions: 141000001 cycles: 154801416 heartbeat IPC: 0.697039 cumulative IPC: 0.673252 (Simulation time: 1 hr 19 min 33 sec) 
Heartbeat CPU 0 instructions: 142000003 cycles: 156482426 heartbeat IPC: 0.594882 cumulative IPC: 0.672289 (Simulation time: 1 hr 19 min 56 sec) 
Heartbeat CPU 0 instructions: 143000000 cycles: 157812959 heartbeat IPC: 0.751576 cumulative IPC: 0.673052 (Simulation time: 1 hr 20 min 15 sec) 
Heartbeat CPU 0 instructions: 144000000 cycles: 159223406 heartbeat IPC: 0.708995 cumulative IPC: 0.673416 (Simulation time: 1 hr 20 min 35 sec) 
Heartbeat CPU 0 instructions: 145000000 cycles: 160929798 heartbeat IPC: 0.586032 cumulative IPC: 0.67236 (Simulation time: 1 hr 20 min 57 sec) 
Heartbeat CPU 0 instructions: 146000003 cycles: 162283641 heartbeat IPC: 0.73864 cumulative IPC: 0.672989 (Simulation time: 1 hr 21 min 16 sec) 
Heartbeat CPU 0 instructions: 147000000 cycles: 163659935 heartbeat IPC: 0.726587 cumulative IPC: 0.673501 (Simulation time: 1 hr 21 min 36 sec) 
Heartbeat CPU 0 instructions: 148000000 cycles: 165378928 heartbeat IPC: 0.581736 cumulative IPC: 0.672419 (Simulation time: 1 hr 22 min 0 sec) 
Heartbeat CPU 0 instructions: 149000001 cycles: 166721078 heartbeat IPC: 0.745074 cumulative IPC: 0.673082 (Simulation time: 1 hr 22 min 20 sec) 
Heartbeat CPU 0 instructions: 150000000 cycles: 168123491 heartbeat IPC: 0.713056 cumulative IPC: 0.67346 (Simulation time: 1 hr 22 min 38 sec) 
Finished CPU 0 instructions: 100000003 cycles: 148487033 cummulative IPC: 0.673459 (Simulation time: 1 hr 22 min 38 sec) 

ChampSim completed all CPUs

Region of Interest Statistics

CPU 0 cummulative IPC: 0.673459 instructions: 100000003 cycles: 148487033
LLC TOTAL     ACCESS:    5975863  HIT:    1384280  MISS:    4591583
LLC LOAD      ACCESS:     434502  HIT:          1  MISS:     434501
LLC RFO       ACCESS:    2551829  HIT:     521522  MISS:    2030307
LLC PREFETCH  ACCESS:     437396  HIT:          1  MISS:     437395
LLC WRITEBACK ACCESS:    2552136  HIT:     862756  MISS:    1689380
