
*** ChampSim Multicore Out-of-Order Simulator ***

Warmup Instructions: 50000000
Simulation Instructions: 100000000
Configuration: 2
Number of CPUs: 1
LLC sets: 2048
LLC ways: 16
Off-chip DRAM Channels: 1 Width: 64-bit Data Rate: 1600 MT/s

CPU 0 runs /datasets/cs240c-wi22-a00-public/data/Assignment2-gz/calculix_2655B.trace.gz
CPU 0 L1D next line prefetcher
CPU 0 L2C IP-based stride prefetcher
config 2, num_core 1, llc_sets 2048
Heartbeat CPU 0 instructions: 1000003 cycles: 392363 heartbeat IPC: 2.54867 cumulative IPC: 2.54867 (Simulation time: 0 hr 0 min 27 sec) 
Heartbeat CPU 0 instructions: 2000001 cycles: 785087 heartbeat IPC: 2.54631 cumulative IPC: 2.54749 (Simulation time: 0 hr 0 min 51 sec) 
Heartbeat CPU 0 instructions: 3000002 cycles: 1177606 heartbeat IPC: 2.54765 cumulative IPC: 2.54754 (Simulation time: 0 hr 1 min 15 sec) 
Heartbeat CPU 0 instructions: 4000000 cycles: 1569370 heartbeat IPC: 2.55255 cumulative IPC: 2.54879 (Simulation time: 0 hr 1 min 39 sec) 
Heartbeat CPU 0 instructions: 5000003 cycles: 1961558 heartbeat IPC: 2.54981 cumulative IPC: 2.549 (Simulation time: 0 hr 2 min 9 sec) 
Heartbeat CPU 0 instructions: 6000003 cycles: 2353701 heartbeat IPC: 2.55009 cumulative IPC: 2.54918 (Simulation time: 0 hr 2 min 34 sec) 
Heartbeat CPU 0 instructions: 7000002 cycles: 2745891 heartbeat IPC: 2.54978 cumulative IPC: 2.54926 (Simulation time: 0 hr 2 min 55 sec) 
Heartbeat CPU 0 instructions: 8000000 cycles: 3137917 heartbeat IPC: 2.55085 cumulative IPC: 2.54946 (Simulation time: 0 hr 3 min 20 sec) 
Heartbeat CPU 0 instructions: 9000001 cycles: 3530136 heartbeat IPC: 2.5496 cumulative IPC: 2.54948 (Simulation time: 0 hr 3 min 44 sec) 
Heartbeat CPU 0 instructions: 10000000 cycles: 3921649 heartbeat IPC: 2.55419 cumulative IPC: 2.54995 (Simulation time: 0 hr 4 min 7 sec) 
Heartbeat CPU 0 instructions: 11000001 cycles: 4313870 heartbeat IPC: 2.54959 cumulative IPC: 2.54991 (Simulation time: 0 hr 4 min 31 sec) 
Heartbeat CPU 0 instructions: 12000000 cycles: 4706074 heartbeat IPC: 2.54969 cumulative IPC: 2.5499 (Simulation time: 0 hr 4 min 54 sec) 
Heartbeat CPU 0 instructions: 13000001 cycles: 5098127 heartbeat IPC: 2.55068 cumulative IPC: 2.54996 (Simulation time: 0 hr 5 min 16 sec) 
Heartbeat CPU 0 instructions: 14000000 cycles: 5490325 heartbeat IPC: 2.54973 cumulative IPC: 2.54994 (Simulation time: 0 hr 5 min 39 sec) 
Heartbeat CPU 0 instructions: 15000000 cycles: 5882527 heartbeat IPC: 2.54971 cumulative IPC: 2.54992 (Simulation time: 0 hr 6 min 1 sec) 
Heartbeat CPU 0 instructions: 16000000 cycles: 6273999 heartbeat IPC: 2.55446 cumulative IPC: 2.55021 (Simulation time: 0 hr 6 min 25 sec) 
Heartbeat CPU 0 instructions: 17000001 cycles: 6666207 heartbeat IPC: 2.54967 cumulative IPC: 2.55018 (Simulation time: 0 hr 6 min 47 sec) 
Heartbeat CPU 0 instructions: 18000000 cycles: 7058187 heartbeat IPC: 2.55115 cumulative IPC: 2.55023 (Simulation time: 0 hr 7 min 9 sec) 
Heartbeat CPU 0 instructions: 19000001 cycles: 7450235 heartbeat IPC: 2.55071 cumulative IPC: 2.55026 (Simulation time: 0 hr 7 min 35 sec) 
Heartbeat CPU 0 instructions: 20000000 cycles: 7842317 heartbeat IPC: 2.55048 cumulative IPC: 2.55027 (Simulation time: 0 hr 7 min 59 sec) 
Heartbeat CPU 0 instructions: 21000000 cycles: 8234390 heartbeat IPC: 2.55055 cumulative IPC: 2.55028 (Simulation time: 0 hr 8 min 22 sec) 
Heartbeat CPU 0 instructions: 22000003 cycles: 8625887 heartbeat IPC: 2.55431 cumulative IPC: 2.55046 (Simulation time: 0 hr 8 min 47 sec) 
Heartbeat CPU 0 instructions: 23000001 cycles: 9017791 heartbeat IPC: 2.55164 cumulative IPC: 2.55051 (Simulation time: 0 hr 9 min 10 sec) 
Heartbeat CPU 0 instructions: 24000000 cycles: 9409920 heartbeat IPC: 2.55018 cumulative IPC: 2.5505 (Simulation time: 0 hr 9 min 36 sec) 
Heartbeat CPU 0 instructions: 25000000 cycles: 9802083 heartbeat IPC: 2.54996 cumulative IPC: 2.55048 (Simulation time: 0 hr 10 min 2 sec) 
Heartbeat CPU 0 instructions: 26000003 cycles: 10194208 heartbeat IPC: 2.55021 cumulative IPC: 2.55047 (Simulation time: 0 hr 10 min 24 sec) 
Heartbeat CPU 0 instructions: 27000002 cycles: 10585405 heartbeat IPC: 2.55625 cumulative IPC: 2.55068 (Simulation time: 0 hr 10 min 51 sec) 
Heartbeat CPU 0 instructions: 28000000 cycles: 10977428 heartbeat IPC: 2.55087 cumulative IPC: 2.55069 (Simulation time: 0 hr 11 min 17 sec) 
Heartbeat CPU 0 instructions: 29000001 cycles: 11369519 heartbeat IPC: 2.55043 cumulative IPC: 2.55068 (Simulation time: 0 hr 11 min 41 sec) 
Heartbeat CPU 0 instructions: 30000002 cycles: 11761696 heartbeat IPC: 2.54987 cumulative IPC: 2.55065 (Simulation time: 0 hr 12 min 2 sec) 
Heartbeat CPU 0 instructions: 31000001 cycles: 12153877 heartbeat IPC: 2.54984 cumulative IPC: 2.55063 (Simulation time: 0 hr 12 min 25 sec) 
Heartbeat CPU 0 instructions: 32000000 cycles: 12545832 heartbeat IPC: 2.55131 cumulative IPC: 2.55065 (Simulation time: 0 hr 12 min 53 sec) 
Heartbeat CPU 0 instructions: 33000003 cycles: 12937112 heartbeat IPC: 2.55572 cumulative IPC: 2.5508 (Simulation time: 0 hr 13 min 16 sec) 
Heartbeat CPU 0 instructions: 34000003 cycles: 13329123 heartbeat IPC: 2.55095 cumulative IPC: 2.55081 (Simulation time: 0 hr 13 min 39 sec) 
Heartbeat CPU 0 instructions: 35000003 cycles: 13721197 heartbeat IPC: 2.55054 cumulative IPC: 2.5508 (Simulation time: 0 hr 14 min 3 sec) 
Heartbeat CPU 0 instructions: 36000000 cycles: 14113224 heartbeat IPC: 2.55084 cumulative IPC: 2.5508 (Simulation time: 0 hr 14 min 26 sec) 
Heartbeat CPU 0 instructions: 37000003 cycles: 14505220 heartbeat IPC: 2.55105 cumulative IPC: 2.55081 (Simulation time: 0 hr 14 min 48 sec) 
Heartbeat CPU 0 instructions: 38000002 cycles: 14897329 heartbeat IPC: 2.55031 cumulative IPC: 2.55079 (Simulation time: 0 hr 15 min 11 sec) 
Heartbeat CPU 0 instructions: 39000001 cycles: 15298865 heartbeat IPC: 2.49043 cumulative IPC: 2.54921 (Simulation time: 0 hr 15 min 38 sec) 
Heartbeat CPU 0 instructions: 40000000 cycles: 15691066 heartbeat IPC: 2.54971 cumulative IPC: 2.54922 (Simulation time: 0 hr 15 min 59 sec) 
Heartbeat CPU 0 instructions: 41000000 cycles: 16082186 heartbeat IPC: 2.55676 cumulative IPC: 2.5494 (Simulation time: 0 hr 16 min 20 sec) 
Heartbeat CPU 0 instructions: 42000000 cycles: 16473327 heartbeat IPC: 2.55662 cumulative IPC: 2.54958 (Simulation time: 0 hr 16 min 42 sec) 
Heartbeat CPU 0 instructions: 43000002 cycles: 16864620 heartbeat IPC: 2.55563 cumulative IPC: 2.54972 (Simulation time: 0 hr 17 min 5 sec) 
Heartbeat CPU 0 instructions: 44000000 cycles: 17261236 heartbeat IPC: 2.52133 cumulative IPC: 2.54906 (Simulation time: 0 hr 17 min 33 sec) 
Heartbeat CPU 0 instructions: 45000001 cycles: 17653015 heartbeat IPC: 2.55246 cumulative IPC: 2.54914 (Simulation time: 0 hr 17 min 56 sec) 
Heartbeat CPU 0 instructions: 46000003 cycles: 18047541 heartbeat IPC: 2.53469 cumulative IPC: 2.54882 (Simulation time: 0 hr 18 min 18 sec) 
Heartbeat CPU 0 instructions: 47000000 cycles: 18441932 heartbeat IPC: 2.53555 cumulative IPC: 2.54854 (Simulation time: 0 hr 18 min 40 sec) 
Heartbeat CPU 0 instructions: 48000000 cycles: 18835148 heartbeat IPC: 2.54313 cumulative IPC: 2.54843 (Simulation time: 0 hr 19 min 2 sec) 
Heartbeat CPU 0 instructions: 49000001 cycles: 19228649 heartbeat IPC: 2.54129 cumulative IPC: 2.54828 (Simulation time: 0 hr 19 min 26 sec) 
Heartbeat CPU 0 instructions: 50000003 cycles: 19618868 heartbeat IPC: 2.56267 cumulative IPC: 2.54857 (Simulation time: 0 hr 19 min 50 sec) 

Warmup complete CPU 0 instructions: 50000003 cycles: 19618868 (Simulation time: 0 hr 19 min 50 sec) 

Heartbeat CPU 0 instructions: 51000001 cycles: 20098110 heartbeat IPC: 2.08662 cumulative IPC: 2.08662 (Simulation time: 0 hr 20 min 15 sec) 
Heartbeat CPU 0 instructions: 52000000 cycles: 20534054 heartbeat IPC: 2.29387 cumulative IPC: 2.18534 (Simulation time: 0 hr 20 min 42 sec) 
Heartbeat CPU 0 instructions: 53000002 cycles: 21065577 heartbeat IPC: 1.88139 cumulative IPC: 2.07367 (Simulation time: 0 hr 21 min 13 sec) 
Heartbeat CPU 0 instructions: 54000002 cycles: 21866210 heartbeat IPC: 1.24901 cumulative IPC: 1.77988 (Simulation time: 0 hr 21 min 45 sec) 
Heartbeat CPU 0 instructions: 55000002 cycles: 22399665 heartbeat IPC: 1.87457 cumulative IPC: 1.79805 (Simulation time: 0 hr 22 min 10 sec) 
Heartbeat CPU 0 instructions: 56000000 cycles: 22884886 heartbeat IPC: 2.06091 cumulative IPC: 1.8371 (Simulation time: 0 hr 22 min 37 sec) 
Heartbeat CPU 0 instructions: 57000000 cycles: 23426753 heartbeat IPC: 1.84547 cumulative IPC: 1.83829 (Simulation time: 0 hr 23 min 4 sec) 
Heartbeat CPU 0 instructions: 58000003 cycles: 23877443 heartbeat IPC: 2.21883 cumulative IPC: 1.87856 (Simulation time: 0 hr 23 min 28 sec) 
Heartbeat CPU 0 instructions: 59000001 cycles: 24413303 heartbeat IPC: 1.86616 cumulative IPC: 1.87718 (Simulation time: 0 hr 23 min 56 sec) 
Heartbeat CPU 0 instructions: 60000000 cycles: 24896214 heartbeat IPC: 2.07077 cumulative IPC: 1.89489 (Simulation time: 0 hr 24 min 22 sec) 
Heartbeat CPU 0 instructions: 61000002 cycles: 25413528 heartbeat IPC: 1.93307 cumulative IPC: 1.8983 (Simulation time: 0 hr 24 min 49 sec) 
Heartbeat CPU 0 instructions: 62000003 cycles: 25939801 heartbeat IPC: 1.90016 cumulative IPC: 1.89845 (Simulation time: 0 hr 25 min 17 sec) 
Heartbeat CPU 0 instructions: 63000003 cycles: 26627137 heartbeat IPC: 1.45489 cumulative IPC: 1.85495 (Simulation time: 0 hr 25 min 48 sec) 
Heartbeat CPU 0 instructions: 64000000 cycles: 27119535 heartbeat IPC: 2.03087 cumulative IPC: 1.8665 (Simulation time: 0 hr 26 min 17 sec) 
Heartbeat CPU 0 instructions: 65000001 cycles: 27650760 heartbeat IPC: 1.88244 cumulative IPC: 1.86755 (Simulation time: 0 hr 26 min 46 sec) 
Heartbeat CPU 0 instructions: 66000001 cycles: 28310456 heartbeat IPC: 1.51585 cumulative IPC: 1.84086 (Simulation time: 0 hr 27 min 14 sec) 
Heartbeat CPU 0 instructions: 67000003 cycles: 28900461 heartbeat IPC: 1.6949 cumulative IPC: 1.83158 (Simulation time: 0 hr 27 min 43 sec) 
Heartbeat CPU 0 instructions: 68000000 cycles: 29479563 heartbeat IPC: 1.72681 cumulative IPC: 1.82543 (Simulation time: 0 hr 28 min 10 sec) 
Heartbeat CPU 0 instructions: 69000001 cycles: 30051968 heartbeat IPC: 1.74702 cumulative IPC: 1.82113 (Simulation time: 0 hr 28 min 38 sec) 
Heartbeat CPU 0 instructions: 70000002 cycles: 30631827 heartbeat IPC: 1.72456 cumulative IPC: 1.81604 (Simulation time: 0 hr 29 min 4 sec) 
Heartbeat CPU 0 instructions: 71000003 cycles: 31205318 heartbeat IPC: 1.74371 cumulative IPC: 1.81246 (Simulation time: 0 hr 29 min 32 sec) 
Heartbeat CPU 0 instructions: 72000000 cycles: 31783425 heartbeat IPC: 1.72978 cumulative IPC: 1.80853 (Simulation time: 0 hr 30 min 1 sec) 
Heartbeat CPU 0 instructions: 73000000 cycles: 32361544 heartbeat IPC: 1.72975 cumulative IPC: 1.80496 (Simulation time: 0 hr 30 min 29 sec) 
Heartbeat CPU 0 instructions: 74000000 cycles: 32932028 heartbeat IPC: 1.7529 cumulative IPC: 1.80273 (Simulation time: 0 hr 31 min 2 sec) 
Heartbeat CPU 0 instructions: 75000000 cycles: 33569339 heartbeat IPC: 1.56909 cumulative IPC: 1.79205 (Simulation time: 0 hr 31 min 34 sec) 
Heartbeat CPU 0 instructions: 76000000 cycles: 34163309 heartbeat IPC: 1.68359 cumulative IPC: 1.78762 (Simulation time: 0 hr 32 min 1 sec) 
Heartbeat CPU 0 instructions: 77000003 cycles: 34756834 heartbeat IPC: 1.68485 cumulative IPC: 1.78359 (Simulation time: 0 hr 32 min 33 sec) 
Heartbeat CPU 0 instructions: 78000002 cycles: 35346846 heartbeat IPC: 1.69488 cumulative IPC: 1.78027 (Simulation time: 0 hr 33 min 0 sec) 
Heartbeat CPU 0 instructions: 79000001 cycles: 35930486 heartbeat IPC: 1.71338 cumulative IPC: 1.77787 (Simulation time: 0 hr 33 min 33 sec) 
Heartbeat CPU 0 instructions: 80000000 cycles: 36521492 heartbeat IPC: 1.69203 cumulative IPC: 1.77487 (Simulation time: 0 hr 34 min 0 sec) 
Heartbeat CPU 0 instructions: 81000001 cycles: 37108946 heartbeat IPC: 1.70226 cumulative IPC: 1.77243 (Simulation time: 0 hr 34 min 26 sec) 
Heartbeat CPU 0 instructions: 82000003 cycles: 37688443 heartbeat IPC: 1.72564 cumulative IPC: 1.77093 (Simulation time: 0 hr 34 min 56 sec) 
Heartbeat CPU 0 instructions: 83000003 cycles: 38268269 heartbeat IPC: 1.72466 cumulative IPC: 1.76949 (Simulation time: 0 hr 35 min 26 sec) 
Heartbeat CPU 0 instructions: 84000000 cycles: 38885567 heartbeat IPC: 1.61996 cumulative IPC: 1.7647 (Simulation time: 0 hr 35 min 54 sec) 
Heartbeat CPU 0 instructions: 85000002 cycles: 39436889 heartbeat IPC: 1.81383 cumulative IPC: 1.76607 (Simulation time: 0 hr 36 min 24 sec) 
Heartbeat CPU 0 instructions: 86000001 cycles: 40155976 heartbeat IPC: 1.39065 cumulative IPC: 1.75292 (Simulation time: 0 hr 36 min 51 sec) 
Heartbeat CPU 0 instructions: 87000003 cycles: 40741274 heartbeat IPC: 1.70853 cumulative IPC: 1.75169 (Simulation time: 0 hr 37 min 20 sec) 
Heartbeat CPU 0 instructions: 88000000 cycles: 41208207 heartbeat IPC: 2.14163 cumulative IPC: 1.76013 (Simulation time: 0 hr 37 min 46 sec) 
Heartbeat CPU 0 instructions: 89000000 cycles: 41671782 heartbeat IPC: 2.15715 cumulative IPC: 1.76847 (Simulation time: 0 hr 38 min 17 sec) 
Heartbeat CPU 0 instructions: 90000001 cycles: 42139158 heartbeat IPC: 2.13961 cumulative IPC: 1.77618 (Simulation time: 0 hr 38 min 42 sec) 
Heartbeat CPU 0 instructions: 91000002 cycles: 42687625 heartbeat IPC: 1.82327 cumulative IPC: 1.7773 (Simulation time: 0 hr 39 min 10 sec) 
Heartbeat CPU 0 instructions: 92000000 cycles: 43217585 heartbeat IPC: 1.88693 cumulative IPC: 1.77976 (Simulation time: 0 hr 39 min 39 sec) 
Heartbeat CPU 0 instructions: 93000000 cycles: 43749701 heartbeat IPC: 1.87929 cumulative IPC: 1.78195 (Simulation time: 0 hr 40 min 6 sec) 
Heartbeat CPU 0 instructions: 94000003 cycles: 44265631 heartbeat IPC: 1.93825 cumulative IPC: 1.78522 (Simulation time: 0 hr 40 min 33 sec) 
Heartbeat CPU 0 instructions: 95000003 cycles: 44816932 heartbeat IPC: 1.81389 cumulative IPC: 1.78585 (Simulation time: 0 hr 40 min 59 sec) 
Heartbeat CPU 0 instructions: 96000000 cycles: 45296314 heartbeat IPC: 2.08601 cumulative IPC: 1.79146 (Simulation time: 0 hr 41 min 30 sec) 
Heartbeat CPU 0 instructions: 97000002 cycles: 45788279 heartbeat IPC: 2.03267 cumulative IPC: 1.79599 (Simulation time: 0 hr 41 min 58 sec) 
Heartbeat CPU 0 instructions: 98000001 cycles: 46261962 heartbeat IPC: 2.11111 cumulative IPC: 1.80159 (Simulation time: 0 hr 42 min 24 sec) 
Heartbeat CPU 0 instructions: 99000001 cycles: 46808441 heartbeat IPC: 1.8299 cumulative IPC: 1.80216 (Simulation time: 0 hr 42 min 54 sec) 
Heartbeat CPU 0 instructions: 100000000 cycles: 47297354 heartbeat IPC: 2.04535 cumulative IPC: 1.80646 (Simulation time: 0 hr 43 min 22 sec) 
Heartbeat CPU 0 instructions: 101000001 cycles: 47784342 heartbeat IPC: 2.05344 cumulative IPC: 1.81073 (Simulation time: 0 hr 43 min 51 sec) 
Heartbeat CPU 0 instructions: 102000003 cycles: 48255361 heartbeat IPC: 2.12306 cumulative IPC: 1.81586 (Simulation time: 0 hr 44 min 18 sec) 
Heartbeat CPU 0 instructions: 103000003 cycles: 48790237 heartbeat IPC: 1.86959 cumulative IPC: 1.81685 (Simulation time: 0 hr 44 min 45 sec) 
Heartbeat CPU 0 instructions: 104000000 cycles: 49347595 heartbeat IPC: 1.79417 cumulative IPC: 1.81642 (Simulation time: 0 hr 45 min 16 sec) 
Heartbeat CPU 0 instructions: 105000001 cycles: 49774185 heartbeat IPC: 2.34417 cumulative IPC: 1.82389 (Simulation time: 0 hr 45 min 41 sec) 
Heartbeat CPU 0 instructions: 106000002 cycles: 50221258 heartbeat IPC: 2.23677 cumulative IPC: 1.82992 (Simulation time: 0 hr 46 min 6 sec) 
Heartbeat CPU 0 instructions: 107000001 cycles: 50674559 heartbeat IPC: 2.20604 cumulative IPC: 1.83541 (Simulation time: 0 hr 46 min 31 sec) 
Heartbeat CPU 0 instructions: 108000000 cycles: 51093376 heartbeat IPC: 2.38768 cumulative IPC: 1.84276 (Simulation time: 0 hr 46 min 54 sec) 
Heartbeat CPU 0 instructions: 109000000 cycles: 51570609 heartbeat IPC: 2.09541 cumulative IPC: 1.84653 (Simulation time: 0 hr 47 min 20 sec) 
Heartbeat CPU 0 instructions: 110000000 cycles: 51989320 heartbeat IPC: 2.38828 cumulative IPC: 1.85354 (Simulation time: 0 hr 47 min 45 sec) 
Heartbeat CPU 0 instructions: 111000001 cycles: 52408347 heartbeat IPC: 2.38648 cumulative IPC: 1.86035 (Simulation time: 0 hr 48 min 11 sec) 
Heartbeat CPU 0 instructions: 112000000 cycles: 52916377 heartbeat IPC: 1.96839 cumulative IPC: 1.862 (Simulation time: 0 hr 48 min 41 sec) 
Heartbeat CPU 0 instructions: 113000003 cycles: 53379946 heartbeat IPC: 2.15718 cumulative IPC: 1.86605 (Simulation time: 0 hr 49 min 8 sec) 
Heartbeat CPU 0 instructions: 114000002 cycles: 53838433 heartbeat IPC: 2.18108 cumulative IPC: 1.87028 (Simulation time: 0 hr 49 min 33 sec) 
Heartbeat CPU 0 instructions: 115000000 cycles: 54292368 heartbeat IPC: 2.20295 cumulative IPC: 1.87463 (Simulation time: 0 hr 49 min 57 sec) 
Heartbeat CPU 0 instructions: 116000000 cycles: 54923392 heartbeat IPC: 1.58473 cumulative IPC: 1.86945 (Simulation time: 0 hr 50 min 24 sec) 
Heartbeat CPU 0 instructions: 117000001 cycles: 55479009 heartbeat IPC: 1.7998 cumulative IPC: 1.86837 (Simulation time: 0 hr 50 min 56 sec) 
Heartbeat CPU 0 instructions: 118000000 cycles: 56098568 heartbeat IPC: 1.61405 cumulative IPC: 1.86405 (Simulation time: 0 hr 51 min 25 sec) 
Heartbeat CPU 0 instructions: 119000000 cycles: 57219521 heartbeat IPC: 0.892098 cumulative IPC: 1.83507 (Simulation time: 0 hr 51 min 55 sec) 
Heartbeat CPU 0 instructions: 120000000 cycles: 58265991 heartbeat IPC: 0.955594 cumulative IPC: 1.81126 (Simulation time: 0 hr 52 min 27 sec) 
Heartbeat CPU 0 instructions: 121000000 cycles: 59143815 heartbeat IPC: 1.13918 cumulative IPC: 1.79633 (Simulation time: 0 hr 53 min 1 sec) 
Heartbeat CPU 0 instructions: 122000000 cycles: 59929999 heartbeat IPC: 1.27197 cumulative IPC: 1.78611 (Simulation time: 0 hr 53 min 37 sec) 
Heartbeat CPU 0 instructions: 123000000 cycles: 60688221 heartbeat IPC: 1.31887 cumulative IPC: 1.77748 (Simulation time: 0 hr 54 min 11 sec) 
Heartbeat CPU 0 instructions: 124000000 cycles: 61425200 heartbeat IPC: 1.35689 cumulative IPC: 1.77007 (Simulation time: 0 hr 54 min 46 sec) 
Heartbeat CPU 0 instructions: 125000001 cycles: 62162176 heartbeat IPC: 1.3569 cumulative IPC: 1.76291 (Simulation time: 0 hr 55 min 15 sec) 
Heartbeat CPU 0 instructions: 126000000 cycles: 62893229 heartbeat IPC: 1.36789 cumulative IPC: 1.75624 (Simulation time: 0 hr 55 min 52 sec) 
Heartbeat CPU 0 instructions: 127000000 cycles: 63631997 heartbeat IPC: 1.3536 cumulative IPC: 1.74948 (Simulation time: 0 hr 56 min 30 sec) 
Heartbeat CPU 0 instructions: 128000000 cycles: 64366177 heartbeat IPC: 1.36206 cumulative IPC: 1.74312 (Simulation time: 0 hr 57 min 9 sec) 
Heartbeat CPU 0 instructions: 129000002 cycles: 65091279 heartbeat IPC: 1.37912 cumulative IPC: 1.73732 (Simulation time: 0 hr 57 min 47 sec) 
Heartbeat CPU 0 instructions: 130000001 cycles: 65815923 heartbeat IPC: 1.37999 cumulative IPC: 1.73171 (Simulation time: 0 hr 58 min 20 sec) 
Heartbeat CPU 0 instructions: 131000003 cycles: 66534939 heartbeat IPC: 1.39079 cumulative IPC: 1.72649 (Simulation time: 0 hr 58 min 51 sec) 
Heartbeat CPU 0 instructions: 132000000 cycles: 67244415 heartbeat IPC: 1.40949 cumulative IPC: 1.72176 (Simulation time: 0 hr 59 min 21 sec) 
Heartbeat CPU 0 instructions: 133000002 cycles: 67931885 heartbeat IPC: 1.45461 cumulative IPC: 1.71796 (Simulation time: 0 hr 59 min 51 sec) 
Heartbeat CPU 0 instructions: 134000001 cycles: 68572232 heartbeat IPC: 1.56165 cumulative IPC: 1.71592 (Simulation time: 1 hr 0 min 22 sec) 
Heartbeat CPU 0 instructions: 135000001 cycles: 69409806 heartbeat IPC: 1.19392 cumulative IPC: 1.70714 (Simulation time: 1 hr 0 min 56 sec) 
Heartbeat CPU 0 instructions: 136000000 cycles: 70120795 heartbeat IPC: 1.40649 cumulative IPC: 1.70291 (Simulation time: 1 hr 1 min 24 sec) 
Heartbeat CPU 0 instructions: 137000000 cycles: 70635419 heartbeat IPC: 1.94317 cumulative IPC: 1.70533 (Simulation time: 1 hr 1 min 49 sec) 
Heartbeat CPU 0 instructions: 138000000 cycles: 71152282 heartbeat IPC: 1.93475 cumulative IPC: 1.70763 (Simulation time: 1 hr 2 min 14 sec) 
Heartbeat CPU 0 instructions: 139000003 cycles: 71657017 heartbeat IPC: 1.98124 cumulative IPC: 1.71028 (Simulation time: 1 hr 2 min 39 sec) 
Heartbeat CPU 0 instructions: 140000000 cycles: 72157004 heartbeat IPC: 2.00005 cumulative IPC: 1.71304 (Simulation time: 1 hr 3 min 6 sec) 
Heartbeat CPU 0 instructions: 141000002 cycles: 72650863 heartbeat IPC: 2.02487 cumulative IPC: 1.71595 (Simulation time: 1 hr 3 min 35 sec) 
Heartbeat CPU 0 instructions: 142000002 cycles: 73141382 heartbeat IPC: 2.03866 cumulative IPC: 1.7189 (Simulation time: 1 hr 4 min 2 sec) 
Heartbeat CPU 0 instructions: 143000003 cycles: 73630616 heartbeat IPC: 2.04401 cumulative IPC: 1.72185 (Simulation time: 1 hr 4 min 29 sec) 
Heartbeat CPU 0 instructions: 144000000 cycles: 74120045 heartbeat IPC: 2.04319 cumulative IPC: 1.72473 (Simulation time: 1 hr 4 min 57 sec) 
Heartbeat CPU 0 instructions: 145000003 cycles: 74616422 heartbeat IPC: 2.0146 cumulative IPC: 1.72735 (Simulation time: 1 hr 5 min 22 sec) 
Heartbeat CPU 0 instructions: 146000002 cycles: 75119073 heartbeat IPC: 1.98945 cumulative IPC: 1.72972 (Simulation time: 1 hr 5 min 49 sec) 
Heartbeat CPU 0 instructions: 147000002 cycles: 75620229 heartbeat IPC: 1.99539 cumulative IPC: 1.7321 (Simulation time: 1 hr 6 min 14 sec) 
Heartbeat CPU 0 instructions: 148000000 cycles: 76123118 heartbeat IPC: 1.98851 cumulative IPC: 1.73438 (Simulation time: 1 hr 6 min 40 sec) 
Heartbeat CPU 0 instructions: 149000003 cycles: 76625037 heartbeat IPC: 1.99236 cumulative IPC: 1.73665 (Simulation time: 1 hr 7 min 7 sec) 
Heartbeat CPU 0 instructions: 150000000 cycles: 77118540 heartbeat IPC: 2.02632 cumulative IPC: 1.73914 (Simulation time: 1 hr 7 min 32 sec) 
Finished CPU 0 instructions: 100000001 cycles: 57499673 cummulative IPC: 1.73914 (Simulation time: 1 hr 7 min 32 sec) 

ChampSim completed all CPUs

Region of Interest Statistics

CPU 0 cummulative IPC: 1.73914 instructions: 100000001 cycles: 57499673
LLC TOTAL     ACCESS:    1290613  HIT:     829867  MISS:     460746
LLC LOAD      ACCESS:     167997  HIT:     147579  MISS:      20418
LLC RFO       ACCESS:      32330  HIT:      13055  MISS:      19275
LLC PREFETCH  ACCESS:     713927  HIT:     338379  MISS:     375548
LLC WRITEBACK ACCESS:     376359  HIT:     330854  MISS:      45505
