
*** ChampSim Multicore Out-of-Order Simulator ***

Warmup Instructions: 50000000
Simulation Instructions: 100000000
Configuration: 2
Number of CPUs: 1
LLC sets: 2048
LLC ways: 16
Off-chip DRAM Channels: 1 Width: 64-bit Data Rate: 1600 MT/s

CPU 0 runs /datasets/cs240c-wi22-a00-public/data/Assignment2-gz/perlbench_53B.trace.gz
CPU 0 L1D next line prefetcher
CPU 0 L2C IP-based stride prefetcher
config 2, num_core 1, llc_sets 2048
Heartbeat CPU 0 instructions: 1000000 cycles: 616120 heartbeat IPC: 1.62306 cumulative IPC: 1.62306 (Simulation time: 0 hr 0 min 40 sec) 
Heartbeat CPU 0 instructions: 2000001 cycles: 1253421 heartbeat IPC: 1.56912 cumulative IPC: 1.59563 (Simulation time: 0 hr 1 min 24 sec) 
Heartbeat CPU 0 instructions: 3000002 cycles: 1908999 heartbeat IPC: 1.52537 cumulative IPC: 1.57151 (Simulation time: 0 hr 2 min 3 sec) 
Heartbeat CPU 0 instructions: 4000000 cycles: 2524862 heartbeat IPC: 1.62373 cumulative IPC: 1.58424 (Simulation time: 0 hr 2 min 41 sec) 
Heartbeat CPU 0 instructions: 5000001 cycles: 3153185 heartbeat IPC: 1.59154 cumulative IPC: 1.5857 (Simulation time: 0 hr 3 min 20 sec) 
Heartbeat CPU 0 instructions: 6000001 cycles: 3768814 heartbeat IPC: 1.62435 cumulative IPC: 1.59201 (Simulation time: 0 hr 4 min 2 sec) 
Heartbeat CPU 0 instructions: 7000002 cycles: 4392389 heartbeat IPC: 1.60366 cumulative IPC: 1.59367 (Simulation time: 0 hr 4 min 45 sec) 
Heartbeat CPU 0 instructions: 8000000 cycles: 5002885 heartbeat IPC: 1.63801 cumulative IPC: 1.59908 (Simulation time: 0 hr 5 min 23 sec) 
Heartbeat CPU 0 instructions: 9000000 cycles: 5654655 heartbeat IPC: 1.53428 cumulative IPC: 1.59161 (Simulation time: 0 hr 6 min 0 sec) 
Heartbeat CPU 0 instructions: 10000001 cycles: 6290273 heartbeat IPC: 1.57327 cumulative IPC: 1.58976 (Simulation time: 0 hr 6 min 43 sec) 
Heartbeat CPU 0 instructions: 11000000 cycles: 6907028 heartbeat IPC: 1.62139 cumulative IPC: 1.59258 (Simulation time: 0 hr 7 min 22 sec) 
Heartbeat CPU 0 instructions: 12000000 cycles: 7564186 heartbeat IPC: 1.5217 cumulative IPC: 1.58642 (Simulation time: 0 hr 8 min 7 sec) 
Heartbeat CPU 0 instructions: 13000000 cycles: 8153910 heartbeat IPC: 1.69571 cumulative IPC: 1.59433 (Simulation time: 0 hr 8 min 49 sec) 
Heartbeat CPU 0 instructions: 14000000 cycles: 8770738 heartbeat IPC: 1.6212 cumulative IPC: 1.59622 (Simulation time: 0 hr 9 min 27 sec) 
Heartbeat CPU 0 instructions: 15000001 cycles: 9382681 heartbeat IPC: 1.63414 cumulative IPC: 1.59869 (Simulation time: 0 hr 10 min 12 sec) 
Heartbeat CPU 0 instructions: 16000000 cycles: 9996778 heartbeat IPC: 1.62841 cumulative IPC: 1.60052 (Simulation time: 0 hr 10 min 55 sec) 
Heartbeat CPU 0 instructions: 17000002 cycles: 10628975 heartbeat IPC: 1.58179 cumulative IPC: 1.5994 (Simulation time: 0 hr 11 min 34 sec) 
Heartbeat CPU 0 instructions: 18000002 cycles: 11289378 heartbeat IPC: 1.51423 cumulative IPC: 1.59442 (Simulation time: 0 hr 12 min 18 sec) 
Heartbeat CPU 0 instructions: 19000001 cycles: 11896316 heartbeat IPC: 1.64761 cumulative IPC: 1.59713 (Simulation time: 0 hr 12 min 58 sec) 
Heartbeat CPU 0 instructions: 20000000 cycles: 12571684 heartbeat IPC: 1.48067 cumulative IPC: 1.59088 (Simulation time: 0 hr 13 min 40 sec) 
Heartbeat CPU 0 instructions: 21000000 cycles: 13184164 heartbeat IPC: 1.63271 cumulative IPC: 1.59282 (Simulation time: 0 hr 14 min 20 sec) 
Heartbeat CPU 0 instructions: 22000000 cycles: 13739856 heartbeat IPC: 1.79956 cumulative IPC: 1.60118 (Simulation time: 0 hr 14 min 56 sec) 
Heartbeat CPU 0 instructions: 23000001 cycles: 14278913 heartbeat IPC: 1.85509 cumulative IPC: 1.61077 (Simulation time: 0 hr 15 min 28 sec) 
Heartbeat CPU 0 instructions: 24000000 cycles: 14901735 heartbeat IPC: 1.60559 cumulative IPC: 1.61055 (Simulation time: 0 hr 16 min 3 sec) 
Heartbeat CPU 0 instructions: 25000000 cycles: 15454037 heartbeat IPC: 1.8106 cumulative IPC: 1.6177 (Simulation time: 0 hr 16 min 40 sec) 
Heartbeat CPU 0 instructions: 26000001 cycles: 16007635 heartbeat IPC: 1.80637 cumulative IPC: 1.62423 (Simulation time: 0 hr 17 min 15 sec) 
Heartbeat CPU 0 instructions: 27000001 cycles: 16599719 heartbeat IPC: 1.68895 cumulative IPC: 1.62653 (Simulation time: 0 hr 17 min 51 sec) 
Heartbeat CPU 0 instructions: 28000000 cycles: 17242321 heartbeat IPC: 1.55617 cumulative IPC: 1.62391 (Simulation time: 0 hr 18 min 28 sec) 
Heartbeat CPU 0 instructions: 29000000 cycles: 17853623 heartbeat IPC: 1.63585 cumulative IPC: 1.62432 (Simulation time: 0 hr 19 min 7 sec) 
Heartbeat CPU 0 instructions: 30000000 cycles: 18408604 heartbeat IPC: 1.80186 cumulative IPC: 1.62967 (Simulation time: 0 hr 19 min 38 sec) 
Heartbeat CPU 0 instructions: 31000001 cycles: 18959924 heartbeat IPC: 1.81383 cumulative IPC: 1.63503 (Simulation time: 0 hr 20 min 12 sec) 
Heartbeat CPU 0 instructions: 32000000 cycles: 19516645 heartbeat IPC: 1.79623 cumulative IPC: 1.63963 (Simulation time: 0 hr 20 min 50 sec) 
Heartbeat CPU 0 instructions: 33000003 cycles: 20105910 heartbeat IPC: 1.69703 cumulative IPC: 1.64131 (Simulation time: 0 hr 21 min 29 sec) 
Heartbeat CPU 0 instructions: 34000001 cycles: 20714406 heartbeat IPC: 1.64339 cumulative IPC: 1.64137 (Simulation time: 0 hr 22 min 6 sec) 
Heartbeat CPU 0 instructions: 35000001 cycles: 21325709 heartbeat IPC: 1.63585 cumulative IPC: 1.64121 (Simulation time: 0 hr 22 min 40 sec) 
Heartbeat CPU 0 instructions: 36000000 cycles: 21980948 heartbeat IPC: 1.52616 cumulative IPC: 1.63778 (Simulation time: 0 hr 23 min 19 sec) 
Heartbeat CPU 0 instructions: 37000002 cycles: 22614415 heartbeat IPC: 1.57862 cumulative IPC: 1.63612 (Simulation time: 0 hr 24 min 1 sec) 
Heartbeat CPU 0 instructions: 38000000 cycles: 23234379 heartbeat IPC: 1.61299 cumulative IPC: 1.63551 (Simulation time: 0 hr 24 min 37 sec) 
Heartbeat CPU 0 instructions: 39000001 cycles: 23864275 heartbeat IPC: 1.58757 cumulative IPC: 1.63424 (Simulation time: 0 hr 25 min 13 sec) 
Heartbeat CPU 0 instructions: 40000000 cycles: 24487283 heartbeat IPC: 1.60511 cumulative IPC: 1.6335 (Simulation time: 0 hr 25 min 50 sec) 
Heartbeat CPU 0 instructions: 41000002 cycles: 25111039 heartbeat IPC: 1.60319 cumulative IPC: 1.63275 (Simulation time: 0 hr 26 min 34 sec) 
Heartbeat CPU 0 instructions: 42000000 cycles: 25724815 heartbeat IPC: 1.62926 cumulative IPC: 1.63266 (Simulation time: 0 hr 27 min 11 sec) 
Heartbeat CPU 0 instructions: 43000002 cycles: 26364493 heartbeat IPC: 1.56329 cumulative IPC: 1.63098 (Simulation time: 0 hr 27 min 51 sec) 
Heartbeat CPU 0 instructions: 44000000 cycles: 27024977 heartbeat IPC: 1.51404 cumulative IPC: 1.62812 (Simulation time: 0 hr 28 min 32 sec) 
Heartbeat CPU 0 instructions: 45000001 cycles: 27483477 heartbeat IPC: 2.18103 cumulative IPC: 1.63735 (Simulation time: 0 hr 28 min 58 sec) 
Heartbeat CPU 0 instructions: 46000000 cycles: 28034089 heartbeat IPC: 1.81616 cumulative IPC: 1.64086 (Simulation time: 0 hr 29 min 31 sec) 
Heartbeat CPU 0 instructions: 47000002 cycles: 28571942 heartbeat IPC: 1.85925 cumulative IPC: 1.64497 (Simulation time: 0 hr 30 min 7 sec) 
Heartbeat CPU 0 instructions: 48000000 cycles: 29109773 heartbeat IPC: 1.85932 cumulative IPC: 1.64893 (Simulation time: 0 hr 30 min 43 sec) 
Heartbeat CPU 0 instructions: 49000000 cycles: 29710517 heartbeat IPC: 1.6646 cumulative IPC: 1.64925 (Simulation time: 0 hr 31 min 22 sec) 
Heartbeat CPU 0 instructions: 50000002 cycles: 30241815 heartbeat IPC: 1.88219 cumulative IPC: 1.65334 (Simulation time: 0 hr 31 min 55 sec) 

Warmup complete CPU 0 instructions: 50000002 cycles: 30241815 (Simulation time: 0 hr 31 min 55 sec) 

Heartbeat CPU 0 instructions: 51000000 cycles: 32173089 heartbeat IPC: 0.517792 cumulative IPC: 0.517792 (Simulation time: 0 hr 32 min 29 sec) 
Heartbeat CPU 0 instructions: 52000000 cycles: 34088094 heartbeat IPC: 0.522192 cumulative IPC: 0.519983 (Simulation time: 0 hr 33 min 5 sec) 
Heartbeat CPU 0 instructions: 53000002 cycles: 36038838 heartbeat IPC: 0.512626 cumulative IPC: 0.517507 (Simulation time: 0 hr 33 min 43 sec) 
Heartbeat CPU 0 instructions: 54000000 cycles: 38923830 heartbeat IPC: 0.346621 cumulative IPC: 0.460722 (Simulation time: 0 hr 34 min 28 sec) 
Heartbeat CPU 0 instructions: 55000000 cycles: 41411166 heartbeat IPC: 0.402037 cumulative IPC: 0.447653 (Simulation time: 0 hr 35 min 14 sec) 
Heartbeat CPU 0 instructions: 56000000 cycles: 44210352 heartbeat IPC: 0.357247 cumulative IPC: 0.429537 (Simulation time: 0 hr 35 min 59 sec) 
Heartbeat CPU 0 instructions: 57000001 cycles: 47195605 heartbeat IPC: 0.33498 cumulative IPC: 0.412887 (Simulation time: 0 hr 36 min 49 sec) 
Heartbeat CPU 0 instructions: 58000003 cycles: 50164204 heartbeat IPC: 0.33686 cumulative IPC: 0.401558 (Simulation time: 0 hr 37 min 43 sec) 
Heartbeat CPU 0 instructions: 59000002 cycles: 52988926 heartbeat IPC: 0.354017 cumulative IPC: 0.395655 (Simulation time: 0 hr 38 min 25 sec) 
Heartbeat CPU 0 instructions: 60000000 cycles: 55768236 heartbeat IPC: 0.359801 cumulative IPC: 0.391751 (Simulation time: 0 hr 39 min 6 sec) 
Heartbeat CPU 0 instructions: 61000002 cycles: 58418510 heartbeat IPC: 0.37732 cumulative IPC: 0.390394 (Simulation time: 0 hr 39 min 49 sec) 
Heartbeat CPU 0 instructions: 62000002 cycles: 61121421 heartbeat IPC: 0.369971 cumulative IPC: 0.388606 (Simulation time: 0 hr 40 min 31 sec) 
Heartbeat CPU 0 instructions: 63000001 cycles: 63807313 heartbeat IPC: 0.372315 cumulative IPC: 0.387302 (Simulation time: 0 hr 41 min 16 sec) 
Heartbeat CPU 0 instructions: 64000000 cycles: 66481188 heartbeat IPC: 0.373989 cumulative IPC: 0.38632 (Simulation time: 0 hr 41 min 57 sec) 
Heartbeat CPU 0 instructions: 65000003 cycles: 69134326 heartbeat IPC: 0.376913 cumulative IPC: 0.385678 (Simulation time: 0 hr 42 min 42 sec) 
Heartbeat CPU 0 instructions: 66000001 cycles: 71779393 heartbeat IPC: 0.378062 cumulative IPC: 0.385193 (Simulation time: 0 hr 43 min 27 sec) 
Heartbeat CPU 0 instructions: 67000001 cycles: 74397355 heartbeat IPC: 0.381977 cumulative IPC: 0.385003 (Simulation time: 0 hr 44 min 14 sec) 
Heartbeat CPU 0 instructions: 68000000 cycles: 77085740 heartbeat IPC: 0.37197 cumulative IPC: 0.384255 (Simulation time: 0 hr 44 min 53 sec) 
Heartbeat CPU 0 instructions: 69000001 cycles: 79742144 heartbeat IPC: 0.376449 cumulative IPC: 0.383836 (Simulation time: 0 hr 45 min 33 sec) 
Heartbeat CPU 0 instructions: 70000001 cycles: 82371612 heartbeat IPC: 0.380305 cumulative IPC: 0.383658 (Simulation time: 0 hr 46 min 14 sec) 
Heartbeat CPU 0 instructions: 71000001 cycles: 85093246 heartbeat IPC: 0.367426 cumulative IPC: 0.382852 (Simulation time: 0 hr 47 min 0 sec) 
Heartbeat CPU 0 instructions: 72000000 cycles: 87697920 heartbeat IPC: 0.383925 cumulative IPC: 0.382901 (Simulation time: 0 hr 47 min 46 sec) 
Heartbeat CPU 0 instructions: 73000002 cycles: 90349666 heartbeat IPC: 0.377111 cumulative IPC: 0.382646 (Simulation time: 0 hr 48 min 30 sec) 
Heartbeat CPU 0 instructions: 74000001 cycles: 93034678 heartbeat IPC: 0.372437 cumulative IPC: 0.382209 (Simulation time: 0 hr 49 min 14 sec) 
Heartbeat CPU 0 instructions: 75000001 cycles: 95706571 heartbeat IPC: 0.374266 cumulative IPC: 0.381885 (Simulation time: 0 hr 50 min 1 sec) 
Heartbeat CPU 0 instructions: 76000000 cycles: 98355851 heartbeat IPC: 0.377461 cumulative IPC: 0.381713 (Simulation time: 0 hr 50 min 41 sec) 
Heartbeat CPU 0 instructions: 77000002 cycles: 101031268 heartbeat IPC: 0.373774 cumulative IPC: 0.381413 (Simulation time: 0 hr 51 min 23 sec) 
Heartbeat CPU 0 instructions: 78000000 cycles: 103686385 heartbeat IPC: 0.37663 cumulative IPC: 0.38124 (Simulation time: 0 hr 52 min 3 sec) 
Heartbeat CPU 0 instructions: 79000002 cycles: 106348302 heartbeat IPC: 0.37567 cumulative IPC: 0.381045 (Simulation time: 0 hr 52 min 43 sec) 
Heartbeat CPU 0 instructions: 80000000 cycles: 108984429 heartbeat IPC: 0.379344 cumulative IPC: 0.380988 (Simulation time: 0 hr 53 min 25 sec) 
Heartbeat CPU 0 instructions: 81000000 cycles: 111599477 heartbeat IPC: 0.382402 cumulative IPC: 0.381034 (Simulation time: 0 hr 54 min 8 sec) 
Heartbeat CPU 0 instructions: 82000002 cycles: 114279026 heartbeat IPC: 0.373198 cumulative IPC: 0.380784 (Simulation time: 0 hr 54 min 48 sec) 
Heartbeat CPU 0 instructions: 83000000 cycles: 116927184 heartbeat IPC: 0.37762 cumulative IPC: 0.380687 (Simulation time: 0 hr 55 min 29 sec) 
Heartbeat CPU 0 instructions: 84000000 cycles: 119586461 heartbeat IPC: 0.376042 cumulative IPC: 0.380549 (Simulation time: 0 hr 56 min 12 sec) 
Heartbeat CPU 0 instructions: 85000001 cycles: 122264438 heartbeat IPC: 0.373417 cumulative IPC: 0.380341 (Simulation time: 0 hr 56 min 58 sec) 
Heartbeat CPU 0 instructions: 86000000 cycles: 124759103 heartbeat IPC: 0.400855 cumulative IPC: 0.380883 (Simulation time: 0 hr 57 min 44 sec) 
Heartbeat CPU 0 instructions: 87000000 cycles: 126894175 heartbeat IPC: 0.468368 cumulative IPC: 0.382815 (Simulation time: 0 hr 58 min 21 sec) 
Heartbeat CPU 0 instructions: 88000000 cycles: 128891978 heartbeat IPC: 0.50055 cumulative IPC: 0.3852 (Simulation time: 0 hr 58 min 58 sec) 
Heartbeat CPU 0 instructions: 89000001 cycles: 130971783 heartbeat IPC: 0.480815 cumulative IPC: 0.387174 (Simulation time: 0 hr 59 min 34 sec) 
Heartbeat CPU 0 instructions: 90000000 cycles: 133638303 heartbeat IPC: 0.37502 cumulative IPC: 0.38686 (Simulation time: 1 hr 0 min 19 sec) 
Heartbeat CPU 0 instructions: 91000001 cycles: 136403388 heartbeat IPC: 0.361653 cumulative IPC: 0.386204 (Simulation time: 1 hr 1 min 5 sec) 
Heartbeat CPU 0 instructions: 92000000 cycles: 139088945 heartbeat IPC: 0.372362 cumulative IPC: 0.385862 (Simulation time: 1 hr 1 min 45 sec) 
Heartbeat CPU 0 instructions: 93000000 cycles: 141743856 heartbeat IPC: 0.37666 cumulative IPC: 0.385643 (Simulation time: 1 hr 2 min 25 sec) 
Heartbeat CPU 0 instructions: 94000002 cycles: 144393004 heartbeat IPC: 0.377481 cumulative IPC: 0.385454 (Simulation time: 1 hr 3 min 7 sec) 
Heartbeat CPU 0 instructions: 95000000 cycles: 147013728 heartbeat IPC: 0.381573 cumulative IPC: 0.385367 (Simulation time: 1 hr 3 min 47 sec) 
Heartbeat CPU 0 instructions: 96000000 cycles: 149678997 heartbeat IPC: 0.375197 cumulative IPC: 0.38514 (Simulation time: 1 hr 4 min 31 sec) 
Heartbeat CPU 0 instructions: 97000000 cycles: 152319295 heartbeat IPC: 0.378745 cumulative IPC: 0.385001 (Simulation time: 1 hr 5 min 16 sec) 
Heartbeat CPU 0 instructions: 98000000 cycles: 154941614 heartbeat IPC: 0.381342 cumulative IPC: 0.384924 (Simulation time: 1 hr 5 min 59 sec) 
Heartbeat CPU 0 instructions: 99000002 cycles: 157550892 heartbeat IPC: 0.383249 cumulative IPC: 0.38489 (Simulation time: 1 hr 6 min 43 sec) 
Heartbeat CPU 0 instructions: 100000000 cycles: 160177339 heartbeat IPC: 0.380742 cumulative IPC: 0.384806 (Simulation time: 1 hr 7 min 26 sec) 
Heartbeat CPU 0 instructions: 101000002 cycles: 162832304 heartbeat IPC: 0.376654 cumulative IPC: 0.384643 (Simulation time: 1 hr 8 min 8 sec) 
Heartbeat CPU 0 instructions: 102000000 cycles: 165463292 heartbeat IPC: 0.380085 cumulative IPC: 0.384554 (Simulation time: 1 hr 8 min 47 sec) 
Heartbeat CPU 0 instructions: 103000000 cycles: 168089617 heartbeat IPC: 0.38076 cumulative IPC: 0.384482 (Simulation time: 1 hr 9 min 25 sec) 
Heartbeat CPU 0 instructions: 104000000 cycles: 170751197 heartbeat IPC: 0.375717 cumulative IPC: 0.384316 (Simulation time: 1 hr 10 min 9 sec) 
Heartbeat CPU 0 instructions: 105000003 cycles: 172931169 heartbeat IPC: 0.458723 cumulative IPC: 0.385453 (Simulation time: 1 hr 10 min 49 sec) 
Heartbeat CPU 0 instructions: 106000000 cycles: 174908768 heartbeat IPC: 0.505662 cumulative IPC: 0.387096 (Simulation time: 1 hr 11 min 28 sec) 
Heartbeat CPU 0 instructions: 107000003 cycles: 176884328 heartbeat IPC: 0.506187 cumulative IPC: 0.3887 (Simulation time: 1 hr 12 min 5 sec) 
Heartbeat CPU 0 instructions: 108000000 cycles: 179621725 heartbeat IPC: 0.365309 cumulative IPC: 0.388272 (Simulation time: 1 hr 12 min 45 sec) 
Heartbeat CPU 0 instructions: 109000001 cycles: 182321733 heartbeat IPC: 0.37037 cumulative IPC: 0.387954 (Simulation time: 1 hr 13 min 20 sec) 
Heartbeat CPU 0 instructions: 110000000 cycles: 184838563 heartbeat IPC: 0.397325 cumulative IPC: 0.388106 (Simulation time: 1 hr 14 min 1 sec) 
Heartbeat CPU 0 instructions: 111000000 cycles: 187647318 heartbeat IPC: 0.35603 cumulative IPC: 0.387534 (Simulation time: 1 hr 14 min 40 sec) 
Heartbeat CPU 0 instructions: 112000000 cycles: 190578080 heartbeat IPC: 0.341208 cumulative IPC: 0.386687 (Simulation time: 1 hr 15 min 16 sec) 
Heartbeat CPU 0 instructions: 113000000 cycles: 193485056 heartbeat IPC: 0.344 cumulative IPC: 0.385927 (Simulation time: 1 hr 15 min 50 sec) 
Heartbeat CPU 0 instructions: 114000000 cycles: 196071752 heartbeat IPC: 0.386594 cumulative IPC: 0.385938 (Simulation time: 1 hr 16 min 23 sec) 
Heartbeat CPU 0 instructions: 115000000 cycles: 198747432 heartbeat IPC: 0.373737 cumulative IPC: 0.385744 (Simulation time: 1 hr 16 min 53 sec) 
Heartbeat CPU 0 instructions: 116000000 cycles: 201444110 heartbeat IPC: 0.370827 cumulative IPC: 0.385509 (Simulation time: 1 hr 17 min 22 sec) 
Heartbeat CPU 0 instructions: 117000000 cycles: 204275808 heartbeat IPC: 0.353145 cumulative IPC: 0.384982 (Simulation time: 1 hr 17 min 49 sec) 
Heartbeat CPU 0 instructions: 118000003 cycles: 206825554 heartbeat IPC: 0.392197 cumulative IPC: 0.385086 (Simulation time: 1 hr 18 min 19 sec) 
Heartbeat CPU 0 instructions: 119000002 cycles: 208328791 heartbeat IPC: 0.66523 cumulative IPC: 0.387451 (Simulation time: 1 hr 18 min 39 sec) 
Heartbeat CPU 0 instructions: 120000000 cycles: 210358517 heartbeat IPC: 0.492676 cumulative IPC: 0.388637 (Simulation time: 1 hr 19 min 1 sec) 
Heartbeat CPU 0 instructions: 121000003 cycles: 212287659 heartbeat IPC: 0.518367 cumulative IPC: 0.390012 (Simulation time: 1 hr 19 min 23 sec) 
Heartbeat CPU 0 instructions: 122000000 cycles: 214215365 heartbeat IPC: 0.51875 cumulative IPC: 0.391361 (Simulation time: 1 hr 19 min 44 sec) 
Heartbeat CPU 0 instructions: 123000000 cycles: 216206649 heartbeat IPC: 0.502189 cumulative IPC: 0.392547 (Simulation time: 1 hr 20 min 6 sec) 
Heartbeat CPU 0 instructions: 124000000 cycles: 218601257 heartbeat IPC: 0.417605 cumulative IPC: 0.392866 (Simulation time: 1 hr 20 min 32 sec) 
Heartbeat CPU 0 instructions: 125000002 cycles: 220377452 heartbeat IPC: 0.563002 cumulative IPC: 0.394455 (Simulation time: 1 hr 20 min 52 sec) 
Heartbeat CPU 0 instructions: 126000001 cycles: 222305138 heartbeat IPC: 0.518756 cumulative IPC: 0.395703 (Simulation time: 1 hr 21 min 14 sec) 
Heartbeat CPU 0 instructions: 127000001 cycles: 224231521 heartbeat IPC: 0.519108 cumulative IPC: 0.396928 (Simulation time: 1 hr 21 min 34 sec) 
Heartbeat CPU 0 instructions: 128000000 cycles: 226401990 heartbeat IPC: 0.460729 cumulative IPC: 0.397634 (Simulation time: 1 hr 21 min 55 sec) 
Heartbeat CPU 0 instructions: 129000001 cycles: 229158097 heartbeat IPC: 0.362831 cumulative IPC: 0.397152 (Simulation time: 1 hr 22 min 16 sec) 
Heartbeat CPU 0 instructions: 130000002 cycles: 231679265 heartbeat IPC: 0.396642 cumulative IPC: 0.397146 (Simulation time: 1 hr 22 min 38 sec) 
Heartbeat CPU 0 instructions: 131000000 cycles: 234506027 heartbeat IPC: 0.353761 cumulative IPC: 0.396545 (Simulation time: 1 hr 23 min 0 sec) 
Heartbeat CPU 0 instructions: 132000000 cycles: 237207633 heartbeat IPC: 0.37015 cumulative IPC: 0.396201 (Simulation time: 1 hr 23 min 21 sec) 
Heartbeat CPU 0 instructions: 133000000 cycles: 240116616 heartbeat IPC: 0.343763 cumulative IPC: 0.395474 (Simulation time: 1 hr 23 min 41 sec) 
Heartbeat CPU 0 instructions: 134000000 cycles: 242815446 heartbeat IPC: 0.370531 cumulative IPC: 0.395157 (Simulation time: 1 hr 24 min 2 sec) 
Heartbeat CPU 0 instructions: 135000000 cycles: 245605828 heartbeat IPC: 0.358374 cumulative IPC: 0.394681 (Simulation time: 1 hr 24 min 24 sec) 
Heartbeat CPU 0 instructions: 136000000 cycles: 248476404 heartbeat IPC: 0.348362 cumulative IPC: 0.394071 (Simulation time: 1 hr 24 min 44 sec) 
Heartbeat CPU 0 instructions: 137000003 cycles: 251250366 heartbeat IPC: 0.360496 cumulative IPC: 0.39365 (Simulation time: 1 hr 25 min 6 sec) 
Heartbeat CPU 0 instructions: 138000000 cycles: 253388253 heartbeat IPC: 0.46775 cumulative IPC: 0.39436 (Simulation time: 1 hr 25 min 26 sec) 
Heartbeat CPU 0 instructions: 139000000 cycles: 256081598 heartbeat IPC: 0.371286 cumulative IPC: 0.394085 (Simulation time: 1 hr 25 min 46 sec) 
Heartbeat CPU 0 instructions: 140000000 cycles: 258868516 heartbeat IPC: 0.358819 cumulative IPC: 0.393655 (Simulation time: 1 hr 26 min 4 sec) 
Heartbeat CPU 0 instructions: 141000001 cycles: 261559220 heartbeat IPC: 0.37165 cumulative IPC: 0.393399 (Simulation time: 1 hr 26 min 21 sec) 
Heartbeat CPU 0 instructions: 142000002 cycles: 264175478 heartbeat IPC: 0.382226 cumulative IPC: 0.393274 (Simulation time: 1 hr 26 min 39 sec) 
Heartbeat CPU 0 instructions: 143000001 cycles: 266823525 heartbeat IPC: 0.377636 cumulative IPC: 0.393099 (Simulation time: 1 hr 26 min 57 sec) 
Heartbeat CPU 0 instructions: 144000000 cycles: 269413511 heartbeat IPC: 0.386102 cumulative IPC: 0.393023 (Simulation time: 1 hr 27 min 13 sec) 
Heartbeat CPU 0 instructions: 145000000 cycles: 272030183 heartbeat IPC: 0.382165 cumulative IPC: 0.392906 (Simulation time: 1 hr 27 min 29 sec) 
Heartbeat CPU 0 instructions: 146000000 cycles: 274642390 heartbeat IPC: 0.382818 cumulative IPC: 0.392798 (Simulation time: 1 hr 27 min 43 sec) 
Heartbeat CPU 0 instructions: 147000002 cycles: 277025535 heartbeat IPC: 0.419614 cumulative IPC: 0.393057 (Simulation time: 1 hr 27 min 59 sec) 
Heartbeat CPU 0 instructions: 148000000 cycles: 279094775 heartbeat IPC: 0.483268 cumulative IPC: 0.393807 (Simulation time: 1 hr 28 min 15 sec) 
Heartbeat CPU 0 instructions: 149000001 cycles: 281535238 heartbeat IPC: 0.409759 cumulative IPC: 0.393962 (Simulation time: 1 hr 28 min 31 sec) 
Heartbeat CPU 0 instructions: 150000002 cycles: 284287710 heartbeat IPC: 0.36331 cumulative IPC: 0.39363 (Simulation time: 1 hr 28 min 45 sec) 
Finished CPU 0 instructions: 100000000 cycles: 254045895 cummulative IPC: 0.39363 (Simulation time: 1 hr 28 min 45 sec) 

ChampSim completed all CPUs

Region of Interest Statistics

CPU 0 cummulative IPC: 0.39363 instructions: 100000000 cycles: 254045895
LLC TOTAL     ACCESS:     651876  HIT:     562452  MISS:      89424
LLC LOAD      ACCESS:     308401  HIT:     300473  MISS:       7928
LLC RFO       ACCESS:      29182  HIT:      26574  MISS:       2608
LLC PREFETCH  ACCESS:     213171  HIT:     137178  MISS:      75993
LLC WRITEBACK ACCESS:     101122  HIT:      98227  MISS:       2895
