
*** ChampSim Multicore Out-of-Order Simulator ***

Warmup Instructions: 10000000
Simulation Instructions: 100000000
Configuration: 2
Number of CPUs: 1
LLC sets: 2048
LLC ways: 16
Off-chip DRAM Channels: 1 Width: 64-bit Data Rate: 1600 MT/s

CPU 0 runs /datasets/cs240c-wi22-a00-public/data/Assignment2-gz/milc_360B.trace.gz
CPU 0 L1D next line prefetcher
CPU 0 L2C IP-based stride prefetcher
Heartbeat CPU 0 instructions: 1000001 cycles: 549511 heartbeat IPC: 1.8198 cumulative IPC: 1.8198 (Simulation time: 0 hr 0 min 31 sec) 
select_counter is 387
Heartbeat CPU 0 instructions: 2000003 cycles: 1099026 heartbeat IPC: 1.81979 cumulative IPC: 1.8198 (Simulation time: 0 hr 1 min 3 sec) 
select_counter is 333
Heartbeat CPU 0 instructions: 3000001 cycles: 1648486 heartbeat IPC: 1.81997 cumulative IPC: 1.81985 (Simulation time: 0 hr 1 min 37 sec) 
select_counter is 170
Heartbeat CPU 0 instructions: 4000000 cycles: 2197959 heartbeat IPC: 1.81992 cumulative IPC: 1.81987 (Simulation time: 0 hr 2 min 6 sec) 
select_counter is 67
Heartbeat CPU 0 instructions: 5000002 cycles: 2747468 heartbeat IPC: 1.81981 cumulative IPC: 1.81986 (Simulation time: 0 hr 2 min 38 sec) 
select_counter is 34
Heartbeat CPU 0 instructions: 6000001 cycles: 3296983 heartbeat IPC: 1.81978 cumulative IPC: 1.81985 (Simulation time: 0 hr 3 min 8 sec) 
select_counter is 1009
Heartbeat CPU 0 instructions: 7000000 cycles: 3846462 heartbeat IPC: 1.8199 cumulative IPC: 1.81985 (Simulation time: 0 hr 3 min 37 sec) 
select_counter is 936
Heartbeat CPU 0 instructions: 8000000 cycles: 4395923 heartbeat IPC: 1.81997 cumulative IPC: 1.81987 (Simulation time: 0 hr 4 min 7 sec) 
select_counter is 839
Heartbeat CPU 0 instructions: 9000001 cycles: 4945436 heartbeat IPC: 1.8198 cumulative IPC: 1.81986 (Simulation time: 0 hr 4 min 40 sec) 
select_counter is 710
Heartbeat CPU 0 instructions: 10000001 cycles: 5494911 heartbeat IPC: 1.81992 cumulative IPC: 1.81987 (Simulation time: 0 hr 5 min 8 sec) 
select_counter is 664

Warmup complete CPU 0 instructions: 10000001 cycles: 5494911 (Simulation time: 0 hr 5 min 8 sec) 

Heartbeat CPU 0 instructions: 11000001 cycles: 7185221 heartbeat IPC: 0.591607 cumulative IPC: 0.591607 (Simulation time: 0 hr 5 min 41 sec) 
select_counter is 542
Heartbeat CPU 0 instructions: 12000000 cycles: 8883743 heartbeat IPC: 0.588747 cumulative IPC: 0.590174 (Simulation time: 0 hr 6 min 14 sec) 
select_counter is 410
Heartbeat CPU 0 instructions: 13000001 cycles: 10577565 heartbeat IPC: 0.590381 cumulative IPC: 0.590243 (Simulation time: 0 hr 6 min 45 sec) 
select_counter is 210
Heartbeat CPU 0 instructions: 14000001 cycles: 12272609 heartbeat IPC: 0.589955 cumulative IPC: 0.590171 (Simulation time: 0 hr 7 min 19 sec) 
select_counter is 116
Heartbeat CPU 0 instructions: 15000003 cycles: 13966533 heartbeat IPC: 0.590346 cumulative IPC: 0.590206 (Simulation time: 0 hr 7 min 53 sec) 
select_counter is 35
Heartbeat CPU 0 instructions: 16000000 cycles: 15661251 heartbeat IPC: 0.590067 cumulative IPC: 0.590183 (Simulation time: 0 hr 8 min 28 sec) 
select_counter is 903
Heartbeat CPU 0 instructions: 17000003 cycles: 17344443 heartbeat IPC: 0.594111 cumulative IPC: 0.590741 (Simulation time: 0 hr 9 min 5 sec) 
select_counter is 794
Heartbeat CPU 0 instructions: 18000002 cycles: 19033191 heartbeat IPC: 0.592154 cumulative IPC: 0.590917 (Simulation time: 0 hr 9 min 40 sec) 
select_counter is 663
Heartbeat CPU 0 instructions: 19000000 cycles: 20722398 heartbeat IPC: 0.591993 cumulative IPC: 0.591036 (Simulation time: 0 hr 10 min 14 sec) 
select_counter is 491
Heartbeat CPU 0 instructions: 20000000 cycles: 22418618 heartbeat IPC: 0.589546 cumulative IPC: 0.590887 (Simulation time: 0 hr 10 min 50 sec) 
select_counter is 341
Heartbeat CPU 0 instructions: 21000002 cycles: 24105078 heartbeat IPC: 0.592959 cumulative IPC: 0.591075 (Simulation time: 0 hr 11 min 26 sec) 
select_counter is 268
Heartbeat CPU 0 instructions: 22000003 cycles: 25788218 heartbeat IPC: 0.594128 cumulative IPC: 0.591328 (Simulation time: 0 hr 12 min 0 sec) 
select_counter is 209
Heartbeat CPU 0 instructions: 23000001 cycles: 27470010 heartbeat IPC: 0.594603 cumulative IPC: 0.591579 (Simulation time: 0 hr 12 min 32 sec) 
select_counter is 135
Heartbeat CPU 0 instructions: 24000000 cycles: 29160110 heartbeat IPC: 0.59168 cumulative IPC: 0.591586 (Simulation time: 0 hr 13 min 7 sec) 
select_counter is 53
Heartbeat CPU 0 instructions: 25000003 cycles: 30840527 heartbeat IPC: 0.595092 cumulative IPC: 0.591818 (Simulation time: 0 hr 13 min 43 sec) 
select_counter is 962
Heartbeat CPU 0 instructions: 26000001 cycles: 32522743 heartbeat IPC: 0.594453 cumulative IPC: 0.591982 (Simulation time: 0 hr 14 min 17 sec) 
select_counter is 833
Heartbeat CPU 0 instructions: 27000001 cycles: 34200460 heartbeat IPC: 0.596048 cumulative IPC: 0.59222 (Simulation time: 0 hr 14 min 54 sec) 
select_counter is 792
Heartbeat CPU 0 instructions: 28000000 cycles: 35876343 heartbeat IPC: 0.5967 cumulative IPC: 0.592467 (Simulation time: 0 hr 15 min 29 sec) 
select_counter is 694
Heartbeat CPU 0 instructions: 29000001 cycles: 37555670 heartbeat IPC: 0.595477 cumulative IPC: 0.592625 (Simulation time: 0 hr 16 min 4 sec) 
select_counter is 573
Heartbeat CPU 0 instructions: 30000000 cycles: 39238027 heartbeat IPC: 0.594404 cumulative IPC: 0.592713 (Simulation time: 0 hr 16 min 38 sec) 
select_counter is 466
Heartbeat CPU 0 instructions: 31000003 cycles: 40923789 heartbeat IPC: 0.593205 cumulative IPC: 0.592737 (Simulation time: 0 hr 17 min 13 sec) 
select_counter is 356
Heartbeat CPU 0 instructions: 32000000 cycles: 42613882 heartbeat IPC: 0.591682 cumulative IPC: 0.592689 (Simulation time: 0 hr 17 min 48 sec) 
select_counter is 219
Heartbeat CPU 0 instructions: 33000000 cycles: 44298628 heartbeat IPC: 0.593561 cumulative IPC: 0.592727 (Simulation time: 0 hr 18 min 23 sec) 
select_counter is 94
Heartbeat CPU 0 instructions: 34000003 cycles: 45983652 heartbeat IPC: 0.593465 cumulative IPC: 0.592757 (Simulation time: 0 hr 18 min 58 sec) 
select_counter is 25
Heartbeat CPU 0 instructions: 35000001 cycles: 47664781 heartbeat IPC: 0.594837 cumulative IPC: 0.59284 (Simulation time: 0 hr 19 min 33 sec) 
select_counter is 926
Heartbeat CPU 0 instructions: 36000000 cycles: 49342612 heartbeat IPC: 0.596007 cumulative IPC: 0.592961 (Simulation time: 0 hr 20 min 8 sec) 
select_counter is 770
Heartbeat CPU 0 instructions: 37000000 cycles: 51021699 heartbeat IPC: 0.595562 cumulative IPC: 0.593057 (Simulation time: 0 hr 20 min 41 sec) 
select_counter is 688
Heartbeat CPU 0 instructions: 38000001 cycles: 52697431 heartbeat IPC: 0.596755 cumulative IPC: 0.593189 (Simulation time: 0 hr 21 min 15 sec) 
select_counter is 617
Heartbeat CPU 0 instructions: 39000000 cycles: 54371154 heartbeat IPC: 0.59747 cumulative IPC: 0.593335 (Simulation time: 0 hr 21 min 46 sec) 
select_counter is 511
Heartbeat CPU 0 instructions: 40000000 cycles: 56059967 heartbeat IPC: 0.592132 cumulative IPC: 0.593295 (Simulation time: 0 hr 22 min 19 sec) 
select_counter is 444
Heartbeat CPU 0 instructions: 41000001 cycles: 57750014 heartbeat IPC: 0.5917 cumulative IPC: 0.593243 (Simulation time: 0 hr 22 min 51 sec) 
select_counter is 341
Heartbeat CPU 0 instructions: 42000001 cycles: 59438488 heartbeat IPC: 0.592251 cumulative IPC: 0.593212 (Simulation time: 0 hr 23 min 25 sec) 
select_counter is 222
Heartbeat CPU 0 instructions: 43000000 cycles: 61130624 heartbeat IPC: 0.590968 cumulative IPC: 0.593144 (Simulation time: 0 hr 23 min 57 sec) 
select_counter is 113
Heartbeat CPU 0 instructions: 44000000 cycles: 63071764 heartbeat IPC: 0.515161 cumulative IPC: 0.590515 (Simulation time: 0 hr 24 min 36 sec) 
select_counter is 714
Heartbeat CPU 0 instructions: 45000002 cycles: 65263235 heartbeat IPC: 0.456315 cumulative IPC: 0.585594 (Simulation time: 0 hr 25 min 15 sec) 
select_counter is 644
Heartbeat CPU 0 instructions: 46000001 cycles: 67398138 heartbeat IPC: 0.468405 cumulative IPC: 0.581553 (Simulation time: 0 hr 25 min 54 sec) 
select_counter is 640
Heartbeat CPU 0 instructions: 47000002 cycles: 69571143 heartbeat IPC: 0.460193 cumulative IPC: 0.577437 (Simulation time: 0 hr 26 min 34 sec) 
select_counter is 625
Heartbeat CPU 0 instructions: 48000000 cycles: 71705532 heartbeat IPC: 0.468517 cumulative IPC: 0.573926 (Simulation time: 0 hr 27 min 13 sec) 
select_counter is 626
Heartbeat CPU 0 instructions: 49000003 cycles: 73817884 heartbeat IPC: 0.473407 cumulative IPC: 0.570818 (Simulation time: 0 hr 27 min 51 sec) 
select_counter is 617
Heartbeat CPU 0 instructions: 50000002 cycles: 75715951 heartbeat IPC: 0.526851 cumulative IPC: 0.56963 (Simulation time: 0 hr 28 min 28 sec) 
select_counter is 601
Heartbeat CPU 0 instructions: 51000002 cycles: 76728068 heartbeat IPC: 0.988028 cumulative IPC: 0.575575 (Simulation time: 0 hr 28 min 59 sec) 
select_counter is 598
Heartbeat CPU 0 instructions: 52000000 cycles: 78527284 heartbeat IPC: 0.555797 cumulative IPC: 0.575087 (Simulation time: 0 hr 29 min 31 sec) 
select_counter is 634
Heartbeat CPU 0 instructions: 53000002 cycles: 80738512 heartbeat IPC: 0.452238 cumulative IPC: 0.571477 (Simulation time: 0 hr 30 min 7 sec) 
select_counter is 515
Heartbeat CPU 0 instructions: 54000003 cycles: 82992968 heartbeat IPC: 0.443566 cumulative IPC: 0.567756 (Simulation time: 0 hr 30 min 36 sec) 
select_counter is 531
Heartbeat CPU 0 instructions: 55000003 cycles: 85245872 heartbeat IPC: 0.443872 cumulative IPC: 0.564257 (Simulation time: 0 hr 31 min 7 sec) 
select_counter is 553
Heartbeat CPU 0 instructions: 56000000 cycles: 87486365 heartbeat IPC: 0.446329 cumulative IPC: 0.561034 (Simulation time: 0 hr 31 min 37 sec) 
select_counter is 523
Heartbeat CPU 0 instructions: 57000000 cycles: 89713320 heartbeat IPC: 0.449044 cumulative IPC: 0.558073 (Simulation time: 0 hr 32 min 12 sec) 
select_counter is 553
Heartbeat CPU 0 instructions: 58000000 cycles: 91963712 heartbeat IPC: 0.444367 cumulative IPC: 0.555113 (Simulation time: 0 hr 32 min 46 sec) 
select_counter is 437
Heartbeat CPU 0 instructions: 59000001 cycles: 94200768 heartbeat IPC: 0.447017 cumulative IPC: 0.552387 (Simulation time: 0 hr 33 min 19 sec) 
select_counter is 383
Heartbeat CPU 0 instructions: 60000000 cycles: 96428457 heartbeat IPC: 0.448895 cumulative IPC: 0.549852 (Simulation time: 0 hr 33 min 50 sec) 
select_counter is 281
Heartbeat CPU 0 instructions: 61000000 cycles: 98662196 heartbeat IPC: 0.44768 cumulative IPC: 0.547402 (Simulation time: 0 hr 34 min 26 sec) 
select_counter is 83
Heartbeat CPU 0 instructions: 62000003 cycles: 100891904 heartbeat IPC: 0.448491 cumulative IPC: 0.545091 (Simulation time: 0 hr 34 min 56 sec) 
select_counter is 994
Heartbeat CPU 0 instructions: 63000003 cycles: 103122958 heartbeat IPC: 0.448219 cumulative IPC: 0.542877 (Simulation time: 0 hr 35 min 29 sec) 
select_counter is 797
Heartbeat CPU 0 instructions: 64000000 cycles: 105355220 heartbeat IPC: 0.447975 cumulative IPC: 0.540755 (Simulation time: 0 hr 36 min 1 sec) 
select_counter is 665
Heartbeat CPU 0 instructions: 65000001 cycles: 107592014 heartbeat IPC: 0.447069 cumulative IPC: 0.538703 (Simulation time: 0 hr 36 min 32 sec) 
select_counter is 522
Heartbeat CPU 0 instructions: 66000001 cycles: 109826847 heartbeat IPC: 0.447461 cumulative IPC: 0.536748 (Simulation time: 0 hr 37 min 5 sec) 
select_counter is 407
Heartbeat CPU 0 instructions: 67000002 cycles: 112063769 heartbeat IPC: 0.447043 cumulative IPC: 0.534865 (Simulation time: 0 hr 37 min 38 sec) 
select_counter is 255
Heartbeat CPU 0 instructions: 68000000 cycles: 114291684 heartbeat IPC: 0.448849 cumulative IPC: 0.533104 (Simulation time: 0 hr 38 min 10 sec) 
select_counter is 159
Heartbeat CPU 0 instructions: 69000001 cycles: 116523482 heartbeat IPC: 0.44807 cumulative IPC: 0.531395 (Simulation time: 0 hr 38 min 41 sec) 
select_counter is 66
Heartbeat CPU 0 instructions: 70000000 cycles: 118750473 heartbeat IPC: 0.449036 cumulative IPC: 0.529775 (Simulation time: 0 hr 39 min 12 sec) 
select_counter is 951
Heartbeat CPU 0 instructions: 71000000 cycles: 120977716 heartbeat IPC: 0.448986 cumulative IPC: 0.528217 (Simulation time: 0 hr 39 min 42 sec) 
select_counter is 788
Heartbeat CPU 0 instructions: 72000000 cycles: 123204981 heartbeat IPC: 0.448981 cumulative IPC: 0.526718 (Simulation time: 0 hr 40 min 13 sec) 
select_counter is 653
Heartbeat CPU 0 instructions: 73000001 cycles: 125423436 heartbeat IPC: 0.450765 cumulative IPC: 0.525313 (Simulation time: 0 hr 40 min 45 sec) 
select_counter is 481
Heartbeat CPU 0 instructions: 74000002 cycles: 127019199 heartbeat IPC: 0.62666 cumulative IPC: 0.526644 (Simulation time: 0 hr 41 min 17 sec) 
select_counter is 897
Heartbeat CPU 0 instructions: 75000003 cycles: 128603041 heartbeat IPC: 0.631377 cumulative IPC: 0.527991 (Simulation time: 0 hr 41 min 48 sec) 
select_counter is 235
Heartbeat CPU 0 instructions: 76000000 cycles: 130180925 heartbeat IPC: 0.633758 cumulative IPC: 0.52933 (Simulation time: 0 hr 42 min 17 sec) 
select_counter is 547
Heartbeat CPU 0 instructions: 77000000 cycles: 131763667 heartbeat IPC: 0.631815 cumulative IPC: 0.530614 (Simulation time: 0 hr 42 min 47 sec) 
select_counter is 930
Heartbeat CPU 0 instructions: 78000000 cycles: 133349960 heartbeat IPC: 0.630401 cumulative IPC: 0.531852 (Simulation time: 0 hr 43 min 19 sec) 
select_counter is 302
Heartbeat CPU 0 instructions: 79000000 cycles: 134928798 heartbeat IPC: 0.633377 cumulative IPC: 0.533091 (Simulation time: 0 hr 43 min 51 sec) 
select_counter is 702
Heartbeat CPU 0 instructions: 80000000 cycles: 136511346 heartbeat IPC: 0.631892 cumulative IPC: 0.534284 (Simulation time: 0 hr 44 min 23 sec) 
select_counter is 144
Heartbeat CPU 0 instructions: 81000003 cycles: 138086924 heartbeat IPC: 0.63469 cumulative IPC: 0.535477 (Simulation time: 0 hr 44 min 55 sec) 
select_counter is 568
Heartbeat CPU 0 instructions: 82000003 cycles: 139671345 heartbeat IPC: 0.631145 cumulative IPC: 0.536607 (Simulation time: 0 hr 45 min 24 sec) 
select_counter is 9
Heartbeat CPU 0 instructions: 83000002 cycles: 141242861 heartbeat IPC: 0.636328 cumulative IPC: 0.537761 (Simulation time: 0 hr 45 min 53 sec) 
select_counter is 466
Heartbeat CPU 0 instructions: 84000000 cycles: 142827825 heartbeat IPC: 0.630928 cumulative IPC: 0.538837 (Simulation time: 0 hr 46 min 24 sec) 
select_counter is 920
Heartbeat CPU 0 instructions: 85000000 cycles: 144404506 heartbeat IPC: 0.634244 cumulative IPC: 0.539919 (Simulation time: 0 hr 46 min 52 sec) 
select_counter is 276
Heartbeat CPU 0 instructions: 86000000 cycles: 145984856 heartbeat IPC: 0.632771 cumulative IPC: 0.540964 (Simulation time: 0 hr 47 min 19 sec) 
select_counter is 722
Heartbeat CPU 0 instructions: 87000000 cycles: 147570177 heartbeat IPC: 0.630787 cumulative IPC: 0.541966 (Simulation time: 0 hr 47 min 46 sec) 
select_counter is 102
Heartbeat CPU 0 instructions: 88000000 cycles: 149153295 heartbeat IPC: 0.631665 cumulative IPC: 0.542955 (Simulation time: 0 hr 48 min 11 sec) 
select_counter is 466
Heartbeat CPU 0 instructions: 89000002 cycles: 150739384 heartbeat IPC: 0.630483 cumulative IPC: 0.543911 (Simulation time: 0 hr 48 min 36 sec) 
select_counter is 821
Heartbeat CPU 0 instructions: 90000002 cycles: 152319000 heartbeat IPC: 0.633065 cumulative IPC: 0.54487 (Simulation time: 0 hr 48 min 59 sec) 
select_counter is 198
Heartbeat CPU 0 instructions: 91000003 cycles: 153899965 heartbeat IPC: 0.632526 cumulative IPC: 0.545804 (Simulation time: 0 hr 49 min 20 sec) 
select_counter is 553
Heartbeat CPU 0 instructions: 92000000 cycles: 155484171 heartbeat IPC: 0.631229 cumulative IPC: 0.546706 (Simulation time: 0 hr 49 min 41 sec) 
select_counter is 861
Heartbeat CPU 0 instructions: 93000000 cycles: 157066302 heartbeat IPC: 0.632059 cumulative IPC: 0.547597 (Simulation time: 0 hr 50 min 3 sec) 
select_counter is 164
Heartbeat CPU 0 instructions: 94000000 cycles: 158653225 heartbeat IPC: 0.63015 cumulative IPC: 0.548452 (Simulation time: 0 hr 50 min 21 sec) 
select_counter is 587
Heartbeat CPU 0 instructions: 95000000 cycles: 160240527 heartbeat IPC: 0.63 cumulative IPC: 0.549289 (Simulation time: 0 hr 50 min 38 sec) 
select_counter is 880
Heartbeat CPU 0 instructions: 96000000 cycles: 161829684 heartbeat IPC: 0.629264 cumulative IPC: 0.550102 (Simulation time: 0 hr 50 min 56 sec) 
select_counter is 197
Heartbeat CPU 0 instructions: 97000002 cycles: 163403871 heartbeat IPC: 0.63525 cumulative IPC: 0.55095 (Simulation time: 0 hr 51 min 13 sec) 
select_counter is 602
Heartbeat CPU 0 instructions: 98000003 cycles: 164984289 heartbeat IPC: 0.632745 cumulative IPC: 0.551761 (Simulation time: 0 hr 51 min 30 sec) 
select_counter is 992
Heartbeat CPU 0 instructions: 99000000 cycles: 166561131 heartbeat IPC: 0.634177 cumulative IPC: 0.552568 (Simulation time: 0 hr 51 min 47 sec) 
select_counter is 381
Heartbeat CPU 0 instructions: 100000000 cycles: 168141266 heartbeat IPC: 0.632857 cumulative IPC: 0.553348 (Simulation time: 0 hr 52 min 3 sec) 
select_counter is 810
Heartbeat CPU 0 instructions: 101000002 cycles: 169724522 heartbeat IPC: 0.631611 cumulative IPC: 0.554102 (Simulation time: 0 hr 52 min 20 sec) 
select_counter is 114
Heartbeat CPU 0 instructions: 102000000 cycles: 171301152 heartbeat IPC: 0.634263 cumulative IPC: 0.554865 (Simulation time: 0 hr 52 min 37 sec) 
select_counter is 495
Heartbeat CPU 0 instructions: 103000002 cycles: 172882680 heartbeat IPC: 0.632301 cumulative IPC: 0.555596 (Simulation time: 0 hr 52 min 52 sec) 
select_counter is 893
Heartbeat CPU 0 instructions: 104000000 cycles: 174459636 heartbeat IPC: 0.634132 cumulative IPC: 0.556329 (Simulation time: 0 hr 53 min 7 sec) 
select_counter is 300
Heartbeat CPU 0 instructions: 105000003 cycles: 176040253 heartbeat IPC: 0.632666 cumulative IPC: 0.557037 (Simulation time: 0 hr 53 min 21 sec) 
select_counter is 643
Heartbeat CPU 0 instructions: 106000002 cycles: 177625035 heartbeat IPC: 0.631001 cumulative IPC: 0.557718 (Simulation time: 0 hr 53 min 35 sec) 
select_counter is 1003
Heartbeat CPU 0 instructions: 107000000 cycles: 179203383 heartbeat IPC: 0.633573 cumulative IPC: 0.558407 (Simulation time: 0 hr 53 min 47 sec) 
select_counter is 366
Heartbeat CPU 0 instructions: 108000000 cycles: 180781129 heartbeat IPC: 0.633816 cumulative IPC: 0.559086 (Simulation time: 0 hr 54 min 0 sec) 
select_counter is 724
Heartbeat CPU 0 instructions: 109000002 cycles: 182358295 heartbeat IPC: 0.63405 cumulative IPC: 0.559754 (Simulation time: 0 hr 54 min 13 sec) 
select_counter is 87
Heartbeat CPU 0 instructions: 110000000 cycles: 183936412 heartbeat IPC: 0.633665 cumulative IPC: 0.560408 (Simulation time: 0 hr 54 min 27 sec) 
select_counter is 463
Finished CPU 0 instructions: 100000003 cycles: 178441502 cummulative IPC: 0.560408 (Simulation time: 0 hr 54 min 27 sec) 

ChampSim completed all CPUs

Region of Interest Statistics

CPU 0 cummulative IPC: 0.560408 instructions: 100000003 cycles: 178441502
LLC TOTAL     ACCESS:    3481395  HIT:     312509  MISS:    3168886
LLC LOAD      ACCESS:    1002060  HIT:         10  MISS:    1002050
LLC RFO       ACCESS:     140009  HIT:         73  MISS:     139936
LLC PREFETCH  ACCESS:    1596655  HIT:      22032  MISS:    1574623
LLC WRITEBACK ACCESS:     742671  HIT:     290394  MISS:     452277
Ship samples: 
19, 46, 77, 97, 154, 178, 208, 253, 264, 290, 328, 369, 388, 438, 466, 500, 522, 544, 592, 635, 648, 701, 723, 764, 796, 817, 855, 877, 921, 950, 963, 1022, 1032, 1071, 1113, 1137, 1175, 1211, 1220, 1274, 1309, 1321, 1358, 1383, 1421, 1448, 1498, 1534, 1558, 1586, 1625, 1639, 1684, 1703, 1747, 1790, 1820, 1832, 1870, 1904, 1943, 1981, 1987, 2046, 
Lime duel samples: 
5, 32, 71, 117, 156, 167, 210, 229, 257, 302, 330, 364, 402, 428, 449, 507, 530, 571, 607, 609, 651, 686, 728, 762, 777, 806, 841, 867, 899, 942, 980, 1000, 1054, 1086, 1097, 1146, 1159, 1194, 1233, 1271, 1280, 1323, 1364, 1399, 1413, 1468, 1494, 1511, 1560, 1576, 1616, 1657, 1667, 1720, 1739, 1768, 1809, 1837, 1876, 1889, 1942, 1963, 2006, 2035, 
Lime samples: 
5, 117, 210, 302, 402, 507, 607, 686, 777, 867, 980, 1086, 1159, 1271, 1364, 1468, 1560, 1657, 1739, 1837, 1942, 
Insertion Distribution: 
	LOAD 0 0 0 0 0 0 143125 397682 
	RFO 0 0 0 0 0 0 748 53799 
	PREF 0 0 0 0 0 0 101756 632072 
	WRITEBACK 0 0 0 0 0 0 0 196243 
Total Prefetch Downgrades: 25
