
*** ChampSim Multicore Out-of-Order Simulator ***

Warmup Instructions: 10000000
Simulation Instructions: 100000000
Configuration: 2
Number of CPUs: 1
LLC sets: 2048
LLC ways: 16
Off-chip DRAM Channels: 1 Width: 64-bit Data Rate: 1600 MT/s

CPU 0 runs /datasets/cs240c-wi22-a00-public/data/Assignment2-gz/soplex_217B.trace.gz
CPU 0 L1D next line prefetcher
CPU 0 L2C IP-based stride prefetcher
Heartbeat CPU 0 instructions: 1000002 cycles: 441513 heartbeat IPC: 2.26494 cumulative IPC: 2.26494 (Simulation time: 0 hr 0 min 35 sec) 
select_counter is 154
Heartbeat CPU 0 instructions: 2000003 cycles: 800691 heartbeat IPC: 2.78414 cumulative IPC: 2.49785 (Simulation time: 0 hr 1 min 3 sec) 
select_counter is 530
Heartbeat CPU 0 instructions: 3000002 cycles: 1245805 heartbeat IPC: 2.24661 cumulative IPC: 2.40808 (Simulation time: 0 hr 1 min 34 sec) 
select_counter is 756
Heartbeat CPU 0 instructions: 4000000 cycles: 1673785 heartbeat IPC: 2.33655 cumulative IPC: 2.38979 (Simulation time: 0 hr 2 min 9 sec) 
select_counter is 1023
Heartbeat CPU 0 instructions: 5000001 cycles: 2057835 heartbeat IPC: 2.60383 cumulative IPC: 2.42974 (Simulation time: 0 hr 2 min 33 sec) 
select_counter is 1022
Heartbeat CPU 0 instructions: 6000000 cycles: 2432156 heartbeat IPC: 2.6715 cumulative IPC: 2.46695 (Simulation time: 0 hr 2 min 57 sec) 
select_counter is 990
Heartbeat CPU 0 instructions: 7000003 cycles: 2961643 heartbeat IPC: 1.88863 cumulative IPC: 2.36355 (Simulation time: 0 hr 3 min 22 sec) 
select_counter is 1020
Heartbeat CPU 0 instructions: 8000000 cycles: 3409738 heartbeat IPC: 2.23166 cumulative IPC: 2.34622 (Simulation time: 0 hr 3 min 56 sec) 
select_counter is 376
Heartbeat CPU 0 instructions: 9000001 cycles: 3834275 heartbeat IPC: 2.35551 cumulative IPC: 2.34725 (Simulation time: 0 hr 4 min 30 sec) 
select_counter is 510
Heartbeat CPU 0 instructions: 10000000 cycles: 4246541 heartbeat IPC: 2.42562 cumulative IPC: 2.35486 (Simulation time: 0 hr 4 min 57 sec) 
select_counter is 89

Warmup complete CPU 0 instructions: 10000004 cycles: 4246542 (Simulation time: 0 hr 4 min 57 sec) 

Heartbeat CPU 0 instructions: 11000002 cycles: 8152918 heartbeat IPC: 0.255992 cumulative IPC: 0.255991 (Simulation time: 0 hr 5 min 45 sec) 
select_counter is 558
Heartbeat CPU 0 instructions: 12000000 cycles: 10776137 heartbeat IPC: 0.38121 cumulative IPC: 0.306297 (Simulation time: 0 hr 6 min 18 sec) 
select_counter is 305
Heartbeat CPU 0 instructions: 13000000 cycles: 12093225 heartbeat IPC: 0.759251 cumulative IPC: 0.382327 (Simulation time: 0 hr 6 min 36 sec) 
select_counter is 201
Heartbeat CPU 0 instructions: 14000000 cycles: 14732472 heartbeat IPC: 0.378896 cumulative IPC: 0.381463 (Simulation time: 0 hr 7 min 10 sec) 
select_counter is 59
Heartbeat CPU 0 instructions: 15000000 cycles: 17489954 heartbeat IPC: 0.36265 cumulative IPC: 0.377546 (Simulation time: 0 hr 7 min 48 sec) 
select_counter is 741
Heartbeat CPU 0 instructions: 16000000 cycles: 21270432 heartbeat IPC: 0.264517 cumulative IPC: 0.352446 (Simulation time: 0 hr 8 min 39 sec) 
select_counter is 572
Heartbeat CPU 0 instructions: 17000002 cycles: 23707555 heartbeat IPC: 0.410321 cumulative IPC: 0.359693 (Simulation time: 0 hr 9 min 18 sec) 
select_counter is 433
Heartbeat CPU 0 instructions: 18000002 cycles: 26361398 heartbeat IPC: 0.376812 cumulative IPC: 0.361748 (Simulation time: 0 hr 9 min 57 sec) 
select_counter is 1012
Heartbeat CPU 0 instructions: 19000000 cycles: 29822163 heartbeat IPC: 0.288953 cumulative IPC: 0.351897 (Simulation time: 0 hr 10 min 38 sec) 
select_counter is 551
Heartbeat CPU 0 instructions: 20000000 cycles: 31165335 heartbeat IPC: 0.744506 cumulative IPC: 0.371488 (Simulation time: 0 hr 11 min 4 sec) 
select_counter is 503
Heartbeat CPU 0 instructions: 21000000 cycles: 32611660 heartbeat IPC: 0.691408 cumulative IPC: 0.3878 (Simulation time: 0 hr 11 min 28 sec) 
select_counter is 441
Heartbeat CPU 0 instructions: 22000001 cycles: 35863131 heartbeat IPC: 0.307553 cumulative IPC: 0.379547 (Simulation time: 0 hr 12 min 4 sec) 
select_counter is 320
Heartbeat CPU 0 instructions: 23000003 cycles: 39173506 heartbeat IPC: 0.302081 cumulative IPC: 0.372205 (Simulation time: 0 hr 12 min 48 sec) 
select_counter is 859
Heartbeat CPU 0 instructions: 24000000 cycles: 42516622 heartbeat IPC: 0.299121 cumulative IPC: 0.365821 (Simulation time: 0 hr 13 min 33 sec) 
select_counter is 806
Heartbeat CPU 0 instructions: 25000001 cycles: 44116897 heartbeat IPC: 0.624893 cumulative IPC: 0.376219 (Simulation time: 0 hr 14 min 6 sec) 
select_counter is 487
Heartbeat CPU 0 instructions: 26000001 cycles: 47970542 heartbeat IPC: 0.259495 cumulative IPC: 0.365932 (Simulation time: 0 hr 14 min 56 sec) 
select_counter is 908
Heartbeat CPU 0 instructions: 27000002 cycles: 50299097 heartbeat IPC: 0.429451 cumulative IPC: 0.369143 (Simulation time: 0 hr 15 min 25 sec) 
select_counter is 760
Heartbeat CPU 0 instructions: 28000000 cycles: 51608166 heartbeat IPC: 0.7639 cumulative IPC: 0.380054 (Simulation time: 0 hr 15 min 47 sec) 
select_counter is 720
Heartbeat CPU 0 instructions: 29000002 cycles: 54337991 heartbeat IPC: 0.366325 cumulative IPC: 0.379306 (Simulation time: 0 hr 16 min 20 sec) 
select_counter is 622
Heartbeat CPU 0 instructions: 30000002 cycles: 57308702 heartbeat IPC: 0.33662 cumulative IPC: 0.376916 (Simulation time: 0 hr 17 min 0 sec) 
select_counter is 334
Heartbeat CPU 0 instructions: 31000000 cycles: 60529001 heartbeat IPC: 0.31053 cumulative IPC: 0.373118 (Simulation time: 0 hr 17 min 40 sec) 
select_counter is 837
Heartbeat CPU 0 instructions: 32000000 cycles: 62383453 heartbeat IPC: 0.539243 cumulative IPC: 0.378417 (Simulation time: 0 hr 18 min 14 sec) 
select_counter is 614
Heartbeat CPU 0 instructions: 33000001 cycles: 65961105 heartbeat IPC: 0.279513 cumulative IPC: 0.372683 (Simulation time: 0 hr 18 min 54 sec) 
select_counter is 653
Heartbeat CPU 0 instructions: 34000000 cycles: 68776100 heartbeat IPC: 0.35524 cumulative IPC: 0.371923 (Simulation time: 0 hr 19 min 27 sec) 
select_counter is 285
Heartbeat CPU 0 instructions: 35000002 cycles: 70117475 heartbeat IPC: 0.745505 cumulative IPC: 0.37953 (Simulation time: 0 hr 19 min 49 sec) 
select_counter is 220
Heartbeat CPU 0 instructions: 36000000 cycles: 72345914 heartbeat IPC: 0.448744 cumulative IPC: 0.381795 (Simulation time: 0 hr 20 min 19 sec) 
select_counter is 163
Heartbeat CPU 0 instructions: 37000002 cycles: 74956126 heartbeat IPC: 0.383111 cumulative IPC: 0.381844 (Simulation time: 0 hr 20 min 55 sec) 
select_counter is 944
Heartbeat CPU 0 instructions: 38000000 cycles: 78645290 heartbeat IPC: 0.271064 cumulative IPC: 0.37635 (Simulation time: 0 hr 21 min 43 sec) 
select_counter is 461
Heartbeat CPU 0 instructions: 39000001 cycles: 80763945 heartbeat IPC: 0.471998 cumulative IPC: 0.378999 (Simulation time: 0 hr 22 min 15 sec) 
select_counter is 312
Heartbeat CPU 0 instructions: 40000000 cycles: 83929646 heartbeat IPC: 0.315885 cumulative IPC: 0.376491 (Simulation time: 0 hr 22 min 59 sec) 
select_counter is 649
Heartbeat CPU 0 instructions: 41000000 cycles: 87078715 heartbeat IPC: 0.317554 cumulative IPC: 0.374251 (Simulation time: 0 hr 23 min 37 sec) 
select_counter is 180
Heartbeat CPU 0 instructions: 42000002 cycles: 88418775 heartbeat IPC: 0.746237 cumulative IPC: 0.380173 (Simulation time: 0 hr 23 min 55 sec) 
select_counter is 109
Heartbeat CPU 0 instructions: 43000001 cycles: 90232806 heartbeat IPC: 0.551258 cumulative IPC: 0.383782 (Simulation time: 0 hr 24 min 21 sec) 
select_counter is 49
Heartbeat CPU 0 instructions: 44000000 cycles: 93051292 heartbeat IPC: 0.3548 cumulative IPC: 0.382862 (Simulation time: 0 hr 24 min 58 sec) 
select_counter is 943
Heartbeat CPU 0 instructions: 45000003 cycles: 96892959 heartbeat IPC: 0.260304 cumulative IPC: 0.37778 (Simulation time: 0 hr 25 min 40 sec) 
select_counter is 529
Heartbeat CPU 0 instructions: 46000000 cycles: 99815225 heartbeat IPC: 0.342199 cumulative IPC: 0.376692 (Simulation time: 0 hr 26 min 23 sec) 
select_counter is 471
Heartbeat CPU 0 instructions: 47000001 cycles: 101451990 heartbeat IPC: 0.610962 cumulative IPC: 0.380637 (Simulation time: 0 hr 26 min 55 sec) 
select_counter is 203
Heartbeat CPU 0 instructions: 48000000 cycles: 105128953 heartbeat IPC: 0.271963 cumulative IPC: 0.376676 (Simulation time: 0 hr 27 min 43 sec) 
select_counter is 611
Heartbeat CPU 0 instructions: 49000000 cycles: 107781547 heartbeat IPC: 0.376989 cumulative IPC: 0.376684 (Simulation time: 0 hr 28 min 15 sec) 
select_counter is 420
Heartbeat CPU 0 instructions: 50000001 cycles: 109127044 heartbeat IPC: 0.743221 cumulative IPC: 0.381386 (Simulation time: 0 hr 28 min 37 sec) 
select_counter is 368
Heartbeat CPU 0 instructions: 51000000 cycles: 111685589 heartbeat IPC: 0.390847 cumulative IPC: 0.381612 (Simulation time: 0 hr 29 min 7 sec) 
select_counter is 283
Heartbeat CPU 0 instructions: 52000000 cycles: 114407869 heartbeat IPC: 0.367339 cumulative IPC: 0.381259 (Simulation time: 0 hr 29 min 45 sec) 
select_counter is 195
Heartbeat CPU 0 instructions: 53000000 cycles: 117631389 heartbeat IPC: 0.31022 cumulative IPC: 0.379239 (Simulation time: 0 hr 30 min 26 sec) 
select_counter is 875
Heartbeat CPU 0 instructions: 54000000 cycles: 119606232 heartbeat IPC: 0.506369 cumulative IPC: 0.381416 (Simulation time: 0 hr 30 min 59 sec) 
select_counter is 682
Heartbeat CPU 0 instructions: 55000000 cycles: 122961449 heartbeat IPC: 0.298043 cumulative IPC: 0.379059 (Simulation time: 0 hr 31 min 39 sec) 
select_counter is 892
Heartbeat CPU 0 instructions: 56000000 cycles: 125795307 heartbeat IPC: 0.352876 cumulative IPC: 0.378449 (Simulation time: 0 hr 32 min 15 sec) 
select_counter is 495
Heartbeat CPU 0 instructions: 57000003 cycles: 127143785 heartbeat IPC: 0.741579 cumulative IPC: 0.382433 (Simulation time: 0 hr 32 min 36 sec) 
select_counter is 416
Heartbeat CPU 0 instructions: 58000000 cycles: 129311844 heartbeat IPC: 0.461241 cumulative IPC: 0.383799 (Simulation time: 0 hr 33 min 3 sec) 
select_counter is 343
Heartbeat CPU 0 instructions: 59000000 cycles: 131981619 heartbeat IPC: 0.374563 cumulative IPC: 0.383606 (Simulation time: 0 hr 33 min 40 sec) 
select_counter is 149
Heartbeat CPU 0 instructions: 60000000 cycles: 135282019 heartbeat IPC: 0.302994 cumulative IPC: 0.381576 (Simulation time: 0 hr 34 min 21 sec) 
select_counter is 752
Heartbeat CPU 0 instructions: 61000000 cycles: 137669067 heartbeat IPC: 0.418927 cumulative IPC: 0.382244 (Simulation time: 0 hr 34 min 54 sec) 
select_counter is 582
Heartbeat CPU 0 instructions: 62000002 cycles: 140517147 heartbeat IPC: 0.351114 cumulative IPC: 0.381594 (Simulation time: 0 hr 35 min 34 sec) 
select_counter is 46
Heartbeat CPU 0 instructions: 63000001 cycles: 143882159 heartbeat IPC: 0.297175 cumulative IPC: 0.379559 (Simulation time: 0 hr 36 min 13 sec) 
select_counter is 554
Heartbeat CPU 0 instructions: 64000000 cycles: 145224828 heartbeat IPC: 0.744784 cumulative IPC: 0.383038 (Simulation time: 0 hr 36 min 35 sec) 
select_counter is 480
Heartbeat CPU 0 instructions: 65000001 cycles: 146761908 heartbeat IPC: 0.650585 cumulative IPC: 0.385923 (Simulation time: 0 hr 36 min 59 sec) 
select_counter is 408
Heartbeat CPU 0 instructions: 66000002 cycles: 149885146 heartbeat IPC: 0.320181 cumulative IPC: 0.384513 (Simulation time: 0 hr 37 min 33 sec) 
select_counter is 327
Heartbeat CPU 0 instructions: 67000000 cycles: 153194322 heartbeat IPC: 0.302189 cumulative IPC: 0.382684 (Simulation time: 0 hr 38 min 15 sec) 
select_counter is 359
Heartbeat CPU 0 instructions: 68000000 cycles: 159126483 heartbeat IPC: 0.168573 cumulative IPC: 0.374484 (Simulation time: 0 hr 38 min 59 sec) 
select_counter is 391
Heartbeat CPU 0 instructions: 69000001 cycles: 163312768 heartbeat IPC: 0.238876 cumulative IPC: 0.370915 (Simulation time: 0 hr 39 min 37 sec) 
select_counter is 835
Heartbeat CPU 0 instructions: 70000000 cycles: 167051107 heartbeat IPC: 0.267498 cumulative IPC: 0.36854 (Simulation time: 0 hr 40 min 19 sec) 
select_counter is 1019
Heartbeat CPU 0 instructions: 71000002 cycles: 171522167 heartbeat IPC: 0.223661 cumulative IPC: 0.364668 (Simulation time: 0 hr 40 min 58 sec) 
select_counter is 1012
Heartbeat CPU 0 instructions: 72000000 cycles: 174978082 heartbeat IPC: 0.289358 cumulative IPC: 0.363143 (Simulation time: 0 hr 41 min 34 sec) 
select_counter is 1021
Heartbeat CPU 0 instructions: 73000000 cycles: 178329881 heartbeat IPC: 0.298347 cumulative IPC: 0.361896 (Simulation time: 0 hr 42 min 9 sec) 
select_counter is 963
Heartbeat CPU 0 instructions: 74000000 cycles: 182171695 heartbeat IPC: 0.260294 cumulative IPC: 0.359702 (Simulation time: 0 hr 42 min 38 sec) 
select_counter is 861
Heartbeat CPU 0 instructions: 75000002 cycles: 186117691 heartbeat IPC: 0.253422 cumulative IPC: 0.357396 (Simulation time: 0 hr 43 min 16 sec) 
select_counter is 889
Heartbeat CPU 0 instructions: 76000000 cycles: 188730836 heartbeat IPC: 0.38268 cumulative IPC: 0.357754 (Simulation time: 0 hr 43 min 47 sec) 
select_counter is 851
Heartbeat CPU 0 instructions: 77000000 cycles: 192390504 heartbeat IPC: 0.273249 cumulative IPC: 0.35611 (Simulation time: 0 hr 44 min 25 sec) 
select_counter is 879
Heartbeat CPU 0 instructions: 78000002 cycles: 194584057 heartbeat IPC: 0.455882 cumulative IPC: 0.35726 (Simulation time: 0 hr 44 min 57 sec) 
select_counter is 975
Heartbeat CPU 0 instructions: 79000002 cycles: 196445166 heartbeat IPC: 0.537314 cumulative IPC: 0.359004 (Simulation time: 0 hr 45 min 30 sec) 
select_counter is 1023
Heartbeat CPU 0 instructions: 80000000 cycles: 197610605 heartbeat IPC: 0.858044 cumulative IPC: 0.362011 (Simulation time: 0 hr 45 min 54 sec) 
select_counter is 1023
Heartbeat CPU 0 instructions: 81000003 cycles: 199790283 heartbeat IPC: 0.458785 cumulative IPC: 0.36309 (Simulation time: 0 hr 46 min 24 sec) 
select_counter is 1021
Heartbeat CPU 0 instructions: 82000001 cycles: 202809264 heartbeat IPC: 0.331237 cumulative IPC: 0.362606 (Simulation time: 0 hr 47 min 2 sec) 
select_counter is 719
Heartbeat CPU 0 instructions: 83000002 cycles: 205501214 heartbeat IPC: 0.371478 cumulative IPC: 0.362724 (Simulation time: 0 hr 47 min 34 sec) 
select_counter is 453
Heartbeat CPU 0 instructions: 84000000 cycles: 207776876 heartbeat IPC: 0.439432 cumulative IPC: 0.363582 (Simulation time: 0 hr 48 min 1 sec) 
select_counter is 113
Heartbeat CPU 0 instructions: 85000000 cycles: 209338499 heartbeat IPC: 0.640359 cumulative IPC: 0.36569 (Simulation time: 0 hr 48 min 27 sec) 
select_counter is 0
Heartbeat CPU 0 instructions: 86000001 cycles: 212988800 heartbeat IPC: 0.27395 cumulative IPC: 0.364085 (Simulation time: 0 hr 49 min 3 sec) 
select_counter is 837
Heartbeat CPU 0 instructions: 87000000 cycles: 215538688 heartbeat IPC: 0.392174 cumulative IPC: 0.364424 (Simulation time: 0 hr 49 min 23 sec) 
select_counter is 617
Heartbeat CPU 0 instructions: 88000000 cycles: 216861520 heartbeat IPC: 0.755954 cumulative IPC: 0.36686 (Simulation time: 0 hr 49 min 36 sec) 
select_counter is 563
Heartbeat CPU 0 instructions: 89000003 cycles: 219476078 heartbeat IPC: 0.382475 cumulative IPC: 0.36705 (Simulation time: 0 hr 49 min 55 sec) 
select_counter is 468
Heartbeat CPU 0 instructions: 90000002 cycles: 222233701 heartbeat IPC: 0.362631 cumulative IPC: 0.366994 (Simulation time: 0 hr 50 min 19 sec) 
select_counter is 247
Heartbeat CPU 0 instructions: 91000001 cycles: 225477605 heartbeat IPC: 0.30827 cumulative IPC: 0.366133 (Simulation time: 0 hr 50 min 42 sec) 
select_counter is 878
Heartbeat CPU 0 instructions: 92000000 cycles: 227432335 heartbeat IPC: 0.511579 cumulative IPC: 0.367407 (Simulation time: 0 hr 51 min 1 sec) 
select_counter is 677
Heartbeat CPU 0 instructions: 93000000 cycles: 230913057 heartbeat IPC: 0.287297 cumulative IPC: 0.366177 (Simulation time: 0 hr 51 min 25 sec) 
select_counter is 974
Heartbeat CPU 0 instructions: 94000001 cycles: 233754450 heartbeat IPC: 0.35194 cumulative IPC: 0.366 (Simulation time: 0 hr 51 min 42 sec) 
select_counter is 799
Heartbeat CPU 0 instructions: 95000003 cycles: 235087405 heartbeat IPC: 0.750214 cumulative IPC: 0.368219 (Simulation time: 0 hr 51 min 53 sec) 
select_counter is 727
Heartbeat CPU 0 instructions: 96000000 cycles: 237330431 heartbeat IPC: 0.445825 cumulative IPC: 0.368966 (Simulation time: 0 hr 52 min 7 sec) 
select_counter is 684
Heartbeat CPU 0 instructions: 97000002 cycles: 239801376 heartbeat IPC: 0.404704 cumulative IPC: 0.369341 (Simulation time: 0 hr 52 min 25 sec) 
select_counter is 640
Heartbeat CPU 0 instructions: 98000003 cycles: 243952428 heartbeat IPC: 0.240903 cumulative IPC: 0.367117 (Simulation time: 0 hr 52 min 50 sec) 
select_counter is 263
Heartbeat CPU 0 instructions: 99000000 cycles: 246867960 heartbeat IPC: 0.34299 cumulative IPC: 0.366827 (Simulation time: 0 hr 53 min 7 sec) 
select_counter is 66
Heartbeat CPU 0 instructions: 100000000 cycles: 248730759 heartbeat IPC: 0.536827 cumulative IPC: 0.368122 (Simulation time: 0 hr 53 min 21 sec) 
select_counter is 724
Heartbeat CPU 0 instructions: 101000003 cycles: 252774878 heartbeat IPC: 0.247273 cumulative IPC: 0.366155 (Simulation time: 0 hr 53 min 39 sec) 
select_counter is 371
Heartbeat CPU 0 instructions: 102000000 cycles: 254401512 heartbeat IPC: 0.614765 cumulative IPC: 0.367772 (Simulation time: 0 hr 53 min 48 sec) 
select_counter is 313
Heartbeat CPU 0 instructions: 103000001 cycles: 255683078 heartbeat IPC: 0.780296 cumulative IPC: 0.369875 (Simulation time: 0 hr 53 min 56 sec) 
select_counter is 252
Heartbeat CPU 0 instructions: 104000000 cycles: 258967033 heartbeat IPC: 0.304511 cumulative IPC: 0.369032 (Simulation time: 0 hr 54 min 10 sec) 
select_counter is 167
Heartbeat CPU 0 instructions: 105000001 cycles: 262081159 heartbeat IPC: 0.321118 cumulative IPC: 0.368453 (Simulation time: 0 hr 54 min 25 sec) 
select_counter is 854
Heartbeat CPU 0 instructions: 106000002 cycles: 264866812 heartbeat IPC: 0.358983 cumulative IPC: 0.368352 (Simulation time: 0 hr 54 min 35 sec) 
select_counter is 718
Heartbeat CPU 0 instructions: 107000000 cycles: 266676113 heartbeat IPC: 0.552699 cumulative IPC: 0.369623 (Simulation time: 0 hr 54 min 45 sec) 
select_counter is 400
Heartbeat CPU 0 instructions: 108000000 cycles: 270595195 heartbeat IPC: 0.255162 cumulative IPC: 0.367939 (Simulation time: 0 hr 54 min 58 sec) 
select_counter is 785
Heartbeat CPU 0 instructions: 109000000 cycles: 272491434 heartbeat IPC: 0.52736 cumulative IPC: 0.369066 (Simulation time: 0 hr 55 min 5 sec) 
select_counter is 715
Heartbeat CPU 0 instructions: 110000002 cycles: 273793265 heartbeat IPC: 0.76815 cumulative IPC: 0.370993 (Simulation time: 0 hr 55 min 12 sec) 
select_counter is 645
Finished CPU 0 instructions: 100000000 cycles: 269546727 cummulative IPC: 0.370993 (Simulation time: 0 hr 55 min 12 sec) 

ChampSim completed all CPUs

Region of Interest Statistics

CPU 0 cummulative IPC: 0.370993 instructions: 100000000 cycles: 269546727
LLC TOTAL     ACCESS:    8715646  HIT:    4476741  MISS:    4238905
LLC LOAD      ACCESS:    2238275  HIT:    1011655  MISS:    1226620
LLC RFO       ACCESS:     764932  HIT:     313080  MISS:     451852
LLC PREFETCH  ACCESS:    3551942  HIT:    1487815  MISS:    2064127
LLC WRITEBACK ACCESS:    2160497  HIT:    1664191  MISS:     496306
Ship samples: 
26, 57, 81, 97, 144, 160, 213, 241, 263, 293, 349, 355, 407, 434, 464, 488, 521, 549, 597, 615, 666, 684, 725, 754, 797, 813, 842, 875, 900, 943, 973, 1001, 1036, 1069, 1096, 1144, 1176, 1196, 1243, 1260, 1311, 1330, 1355, 1386, 1435, 1444, 1488, 1535, 1563, 1598, 1601, 1637, 1690, 1702, 1744, 1774, 1805, 1848, 1886, 1895, 1947, 1953, 2008, 2024, 
Lime duel samples: 
29, 36, 76, 109, 148, 161, 220, 240, 267, 298, 334, 361, 401, 435, 462, 496, 532, 564, 598, 633, 662, 675, 714, 759, 799, 800, 858, 881, 897, 957, 980, 1015, 1047, 1070, 1089, 1140, 1154, 1188, 1229, 1278, 1304, 1338, 1353, 1405, 1423, 1465, 1480, 1517, 1564, 1581, 1603, 1654, 1689, 1714, 1749, 1779, 1807, 1824, 1880, 1890, 1945, 1963, 1996, 2017, 
Lime samples: 
29, 109, 220, 298, 401, 496, 598, 675, 799, 881, 980, 1070, 1154, 1278, 1353, 1465, 1564, 1654, 1749, 1824, 1945, 
Insertion Distribution: 
	LOAD 194395 0 0 0 0 0 51249 389890 
	RFO 82089 0 0 0 0 0 36527 110975 
	PREF 0 84558 0 0 0 0 150959 866379 
	WRITEBACK 0 0 0 0 0 0 0 213909 
Total Prefetch Downgrades: 86773
