
*** ChampSim Multicore Out-of-Order Simulator ***

Warmup Instructions: 10000000
Simulation Instructions: 100000000
Configuration: 2
Number of CPUs: 1
LLC sets: 2048
LLC ways: 16
Off-chip DRAM Channels: 1 Width: 64-bit Data Rate: 1600 MT/s

CPU 0 runs /datasets/cs240c-wi22-a00-public/data/Assignment2-gz/perlbench_105B.trace.gz
CPU 0 L1D next line prefetcher
CPU 0 L2C IP-based stride prefetcher
Heartbeat CPU 0 instructions: 1000000 cycles: 578016 heartbeat IPC: 1.73006 cumulative IPC: 1.73006 (Simulation time: 0 hr 0 min 30 sec) 
select_counter is 518
Heartbeat CPU 0 instructions: 2000001 cycles: 1164321 heartbeat IPC: 1.7056 cumulative IPC: 1.71774 (Simulation time: 0 hr 1 min 1 sec) 
select_counter is 516
Heartbeat CPU 0 instructions: 3000001 cycles: 1726557 heartbeat IPC: 1.77861 cumulative IPC: 1.73756 (Simulation time: 0 hr 1 min 31 sec) 
select_counter is 516
Heartbeat CPU 0 instructions: 4000000 cycles: 2305993 heartbeat IPC: 1.72581 cumulative IPC: 1.73461 (Simulation time: 0 hr 2 min 4 sec) 
select_counter is 516
Heartbeat CPU 0 instructions: 5000003 cycles: 2884260 heartbeat IPC: 1.72931 cumulative IPC: 1.73355 (Simulation time: 0 hr 2 min 35 sec) 
select_counter is 518
Heartbeat CPU 0 instructions: 6000003 cycles: 3447519 heartbeat IPC: 1.77538 cumulative IPC: 1.74038 (Simulation time: 0 hr 3 min 7 sec) 
select_counter is 519
Heartbeat CPU 0 instructions: 7000000 cycles: 4019987 heartbeat IPC: 1.74682 cumulative IPC: 1.7413 (Simulation time: 0 hr 3 min 35 sec) 
select_counter is 519
Heartbeat CPU 0 instructions: 8000000 cycles: 4598049 heartbeat IPC: 1.72992 cumulative IPC: 1.73987 (Simulation time: 0 hr 4 min 7 sec) 
select_counter is 519
Heartbeat CPU 0 instructions: 9000000 cycles: 5176571 heartbeat IPC: 1.72854 cumulative IPC: 1.7386 (Simulation time: 0 hr 4 min 41 sec) 
select_counter is 518
Heartbeat CPU 0 instructions: 10000002 cycles: 5745489 heartbeat IPC: 1.75773 cumulative IPC: 1.7405 (Simulation time: 0 hr 5 min 10 sec) 
select_counter is 518

Warmup complete CPU 0 instructions: 10000002 cycles: 5745489 (Simulation time: 0 hr 5 min 10 sec) 

Heartbeat CPU 0 instructions: 11000002 cycles: 8079760 heartbeat IPC: 0.428399 cumulative IPC: 0.428399 (Simulation time: 0 hr 5 min 45 sec) 
select_counter is 521
Heartbeat CPU 0 instructions: 12000000 cycles: 10435599 heartbeat IPC: 0.424476 cumulative IPC: 0.426429 (Simulation time: 0 hr 6 min 19 sec) 
select_counter is 519
Heartbeat CPU 0 instructions: 13000000 cycles: 12866632 heartbeat IPC: 0.411348 cumulative IPC: 0.42128 (Simulation time: 0 hr 6 min 53 sec) 
select_counter is 519
Heartbeat CPU 0 instructions: 14000000 cycles: 15244606 heartbeat IPC: 0.420526 cumulative IPC: 0.421092 (Simulation time: 0 hr 7 min 29 sec) 
select_counter is 518
Heartbeat CPU 0 instructions: 15000000 cycles: 17595618 heartbeat IPC: 0.425349 cumulative IPC: 0.421936 (Simulation time: 0 hr 8 min 10 sec) 
select_counter is 519
Heartbeat CPU 0 instructions: 16000000 cycles: 19976093 heartbeat IPC: 0.420084 cumulative IPC: 0.421626 (Simulation time: 0 hr 8 min 50 sec) 
select_counter is 523
Heartbeat CPU 0 instructions: 17000003 cycles: 22368505 heartbeat IPC: 0.417989 cumulative IPC: 0.421103 (Simulation time: 0 hr 9 min 28 sec) 
select_counter is 523
Heartbeat CPU 0 instructions: 18000000 cycles: 24612402 heartbeat IPC: 0.445652 cumulative IPC: 0.424023 (Simulation time: 0 hr 10 min 3 sec) 
select_counter is 525
Heartbeat CPU 0 instructions: 19000000 cycles: 27117282 heartbeat IPC: 0.399221 cumulative IPC: 0.421116 (Simulation time: 0 hr 10 min 39 sec) 
select_counter is 525
Heartbeat CPU 0 instructions: 20000000 cycles: 29620732 heartbeat IPC: 0.399449 cumulative IPC: 0.418844 (Simulation time: 0 hr 11 min 14 sec) 
select_counter is 525
Heartbeat CPU 0 instructions: 21000001 cycles: 32122235 heartbeat IPC: 0.39976 cumulative IPC: 0.417034 (Simulation time: 0 hr 11 min 48 sec) 
select_counter is 525
Heartbeat CPU 0 instructions: 22000001 cycles: 34618056 heartbeat IPC: 0.40067 cumulative IPC: 0.415619 (Simulation time: 0 hr 12 min 25 sec) 
select_counter is 525
Heartbeat CPU 0 instructions: 23000000 cycles: 37109945 heartbeat IPC: 0.401302 cumulative IPC: 0.414482 (Simulation time: 0 hr 12 min 58 sec) 
select_counter is 525
Heartbeat CPU 0 instructions: 24000000 cycles: 39592832 heartbeat IPC: 0.402757 cumulative IPC: 0.413622 (Simulation time: 0 hr 13 min 32 sec) 
select_counter is 525
Heartbeat CPU 0 instructions: 25000001 cycles: 42055416 heartbeat IPC: 0.406078 cumulative IPC: 0.41311 (Simulation time: 0 hr 14 min 10 sec) 
select_counter is 525
Heartbeat CPU 0 instructions: 26000001 cycles: 44327979 heartbeat IPC: 0.440032 cumulative IPC: 0.414696 (Simulation time: 0 hr 14 min 48 sec) 
select_counter is 525
Heartbeat CPU 0 instructions: 27000003 cycles: 46822809 heartbeat IPC: 0.40083 cumulative IPC: 0.413854 (Simulation time: 0 hr 15 min 26 sec) 
select_counter is 525
Heartbeat CPU 0 instructions: 28000000 cycles: 49326095 heartbeat IPC: 0.399474 cumulative IPC: 0.413028 (Simulation time: 0 hr 16 min 0 sec) 
select_counter is 525
Heartbeat CPU 0 instructions: 29000001 cycles: 51827756 heartbeat IPC: 0.399735 cumulative IPC: 0.412306 (Simulation time: 0 hr 16 min 38 sec) 
select_counter is 525
Heartbeat CPU 0 instructions: 30000001 cycles: 54325160 heartbeat IPC: 0.400416 cumulative IPC: 0.411695 (Simulation time: 0 hr 17 min 16 sec) 
select_counter is 525
Heartbeat CPU 0 instructions: 31000000 cycles: 56816976 heartbeat IPC: 0.401313 cumulative IPC: 0.411188 (Simulation time: 0 hr 17 min 55 sec) 
select_counter is 525
Heartbeat CPU 0 instructions: 32000000 cycles: 59302103 heartbeat IPC: 0.402394 cumulative IPC: 0.41078 (Simulation time: 0 hr 18 min 35 sec) 
select_counter is 525
Heartbeat CPU 0 instructions: 33000001 cycles: 61770175 heartbeat IPC: 0.405175 cumulative IPC: 0.410533 (Simulation time: 0 hr 19 min 14 sec) 
select_counter is 525
Heartbeat CPU 0 instructions: 34000002 cycles: 64180929 heartbeat IPC: 0.414808 cumulative IPC: 0.41071 (Simulation time: 0 hr 19 min 50 sec) 
select_counter is 523
Heartbeat CPU 0 instructions: 35000002 cycles: 66644069 heartbeat IPC: 0.405986 cumulative IPC: 0.410519 (Simulation time: 0 hr 20 min 24 sec) 
select_counter is 521
Heartbeat CPU 0 instructions: 36000000 cycles: 69160493 heartbeat IPC: 0.397389 cumulative IPC: 0.409998 (Simulation time: 0 hr 21 min 2 sec) 
select_counter is 473
Heartbeat CPU 0 instructions: 37000001 cycles: 72163737 heartbeat IPC: 0.332974 cumulative IPC: 0.406515 (Simulation time: 0 hr 21 min 47 sec) 
select_counter is 437
Heartbeat CPU 0 instructions: 38000000 cycles: 74797756 heartbeat IPC: 0.379648 cumulative IPC: 0.40549 (Simulation time: 0 hr 22 min 25 sec) 
select_counter is 399
Heartbeat CPU 0 instructions: 39000000 cycles: 77573039 heartbeat IPC: 0.360324 cumulative IPC: 0.403745 (Simulation time: 0 hr 23 min 3 sec) 
select_counter is 363
Heartbeat CPU 0 instructions: 40000000 cycles: 80222619 heartbeat IPC: 0.377418 cumulative IPC: 0.402808 (Simulation time: 0 hr 23 min 42 sec) 
select_counter is 309
Heartbeat CPU 0 instructions: 41000000 cycles: 82858881 heartbeat IPC: 0.379325 cumulative IPC: 0.402005 (Simulation time: 0 hr 24 min 20 sec) 
select_counter is 256
Heartbeat CPU 0 instructions: 42000002 cycles: 85493522 heartbeat IPC: 0.379559 cumulative IPC: 0.401264 (Simulation time: 0 hr 24 min 58 sec) 
select_counter is 205
Heartbeat CPU 0 instructions: 43000000 cycles: 88140063 heartbeat IPC: 0.377851 cumulative IPC: 0.400512 (Simulation time: 0 hr 25 min 35 sec) 
select_counter is 142
Heartbeat CPU 0 instructions: 44000000 cycles: 90759483 heartbeat IPC: 0.381764 cumulative IPC: 0.399934 (Simulation time: 0 hr 26 min 11 sec) 
select_counter is 91
Heartbeat CPU 0 instructions: 45000001 cycles: 93397237 heartbeat IPC: 0.379111 cumulative IPC: 0.399307 (Simulation time: 0 hr 26 min 48 sec) 
select_counter is 61
Heartbeat CPU 0 instructions: 46000003 cycles: 95999290 heartbeat IPC: 0.384313 cumulative IPC: 0.398875 (Simulation time: 0 hr 27 min 27 sec) 
select_counter is 41
Heartbeat CPU 0 instructions: 47000002 cycles: 98607321 heartbeat IPC: 0.383431 cumulative IPC: 0.398441 (Simulation time: 0 hr 28 min 3 sec) 
select_counter is 998
Heartbeat CPU 0 instructions: 48000000 cycles: 101200110 heartbeat IPC: 0.385684 cumulative IPC: 0.398095 (Simulation time: 0 hr 28 min 41 sec) 
select_counter is 945
Heartbeat CPU 0 instructions: 49000002 cycles: 103797651 heartbeat IPC: 0.38498 cumulative IPC: 0.397747 (Simulation time: 0 hr 29 min 19 sec) 
select_counter is 896
Heartbeat CPU 0 instructions: 50000002 cycles: 106398461 heartbeat IPC: 0.384496 cumulative IPC: 0.397405 (Simulation time: 0 hr 29 min 58 sec) 
select_counter is 844
Heartbeat CPU 0 instructions: 51000003 cycles: 109007604 heartbeat IPC: 0.383268 cumulative IPC: 0.397048 (Simulation time: 0 hr 30 min 34 sec) 
select_counter is 798
Heartbeat CPU 0 instructions: 52000000 cycles: 111595952 heartbeat IPC: 0.386346 cumulative IPC: 0.396786 (Simulation time: 0 hr 31 min 12 sec) 
select_counter is 751
Heartbeat CPU 0 instructions: 53000000 cycles: 114175350 heartbeat IPC: 0.387687 cumulative IPC: 0.39657 (Simulation time: 0 hr 31 min 49 sec) 
select_counter is 698
Heartbeat CPU 0 instructions: 54000000 cycles: 116793236 heartbeat IPC: 0.381988 cumulative IPC: 0.396226 (Simulation time: 0 hr 32 min 27 sec) 
select_counter is 637
Heartbeat CPU 0 instructions: 55000003 cycles: 119355341 heartbeat IPC: 0.390305 cumulative IPC: 0.396092 (Simulation time: 0 hr 33 min 4 sec) 
select_counter is 592
Heartbeat CPU 0 instructions: 56000000 cycles: 121734890 heartbeat IPC: 0.420246 cumulative IPC: 0.396588 (Simulation time: 0 hr 33 min 41 sec) 
select_counter is 575
Heartbeat CPU 0 instructions: 57000002 cycles: 124010174 heartbeat IPC: 0.439506 cumulative IPC: 0.397414 (Simulation time: 0 hr 34 min 26 sec) 
select_counter is 572
Heartbeat CPU 0 instructions: 58000001 cycles: 125331565 heartbeat IPC: 0.756778 cumulative IPC: 0.401385 (Simulation time: 0 hr 34 min 57 sec) 
select_counter is 565
Heartbeat CPU 0 instructions: 59000002 cycles: 127565328 heartbeat IPC: 0.447676 cumulative IPC: 0.402233 (Simulation time: 0 hr 35 min 34 sec) 
select_counter is 551
Heartbeat CPU 0 instructions: 60000000 cycles: 129914113 heartbeat IPC: 0.425751 cumulative IPC: 0.402678 (Simulation time: 0 hr 36 min 15 sec) 
select_counter is 551
Heartbeat CPU 0 instructions: 61000002 cycles: 132363603 heartbeat IPC: 0.408249 cumulative IPC: 0.402786 (Simulation time: 0 hr 36 min 56 sec) 
select_counter is 551
Heartbeat CPU 0 instructions: 62000000 cycles: 134729891 heartbeat IPC: 0.422602 cumulative IPC: 0.40315 (Simulation time: 0 hr 37 min 34 sec) 
select_counter is 552
Heartbeat CPU 0 instructions: 63000000 cycles: 137092408 heartbeat IPC: 0.423277 cumulative IPC: 0.403512 (Simulation time: 0 hr 38 min 6 sec) 
select_counter is 553
Heartbeat CPU 0 instructions: 64000000 cycles: 139511902 heartbeat IPC: 0.41331 cumulative IPC: 0.403689 (Simulation time: 0 hr 38 min 45 sec) 
select_counter is 553
Heartbeat CPU 0 instructions: 65000003 cycles: 141836108 heartbeat IPC: 0.430256 cumulative IPC: 0.404142 (Simulation time: 0 hr 39 min 17 sec) 
select_counter is 553
Heartbeat CPU 0 instructions: 66000002 cycles: 144179341 heartbeat IPC: 0.42676 cumulative IPC: 0.404525 (Simulation time: 0 hr 39 min 52 sec) 
select_counter is 553
Heartbeat CPU 0 instructions: 67000001 cycles: 146534741 heartbeat IPC: 0.424556 cumulative IPC: 0.40486 (Simulation time: 0 hr 40 min 25 sec) 
select_counter is 554
Heartbeat CPU 0 instructions: 68000000 cycles: 148982932 heartbeat IPC: 0.408464 cumulative IPC: 0.404922 (Simulation time: 0 hr 40 min 58 sec) 
select_counter is 554
Heartbeat CPU 0 instructions: 69000001 cycles: 151335214 heartbeat IPC: 0.42512 cumulative IPC: 0.405248 (Simulation time: 0 hr 41 min 36 sec) 
select_counter is 554
Heartbeat CPU 0 instructions: 70000000 cycles: 153751052 heartbeat IPC: 0.413935 cumulative IPC: 0.40539 (Simulation time: 0 hr 42 min 12 sec) 
select_counter is 554
Heartbeat CPU 0 instructions: 71000000 cycles: 156137342 heartbeat IPC: 0.419061 cumulative IPC: 0.405607 (Simulation time: 0 hr 42 min 45 sec) 
select_counter is 554
Heartbeat CPU 0 instructions: 72000000 cycles: 158466164 heartbeat IPC: 0.429402 cumulative IPC: 0.40597 (Simulation time: 0 hr 43 min 19 sec) 
select_counter is 554
Heartbeat CPU 0 instructions: 73000000 cycles: 160799046 heartbeat IPC: 0.428654 cumulative IPC: 0.406311 (Simulation time: 0 hr 43 min 54 sec) 
select_counter is 553
Heartbeat CPU 0 instructions: 74000002 cycles: 163184185 heartbeat IPC: 0.419264 cumulative IPC: 0.406507 (Simulation time: 0 hr 44 min 28 sec) 
select_counter is 553
Heartbeat CPU 0 instructions: 75000000 cycles: 165607634 heartbeat IPC: 0.412634 cumulative IPC: 0.4066 (Simulation time: 0 hr 45 min 6 sec) 
select_counter is 553
Heartbeat CPU 0 instructions: 76000000 cycles: 167966916 heartbeat IPC: 0.423858 cumulative IPC: 0.406851 (Simulation time: 0 hr 45 min 38 sec) 
select_counter is 553
Heartbeat CPU 0 instructions: 77000000 cycles: 170401411 heartbeat IPC: 0.410763 cumulative IPC: 0.406909 (Simulation time: 0 hr 46 min 9 sec) 
select_counter is 553
Heartbeat CPU 0 instructions: 78000002 cycles: 172766492 heartbeat IPC: 0.422819 cumulative IPC: 0.407134 (Simulation time: 0 hr 46 min 42 sec) 
select_counter is 553
Heartbeat CPU 0 instructions: 79000001 cycles: 175102974 heartbeat IPC: 0.427993 cumulative IPC: 0.407422 (Simulation time: 0 hr 47 min 11 sec) 
select_counter is 552
Heartbeat CPU 0 instructions: 80000000 cycles: 177434515 heartbeat IPC: 0.4289 cumulative IPC: 0.407714 (Simulation time: 0 hr 47 min 42 sec) 
select_counter is 552
Heartbeat CPU 0 instructions: 81000000 cycles: 179858199 heartbeat IPC: 0.412595 cumulative IPC: 0.407782 (Simulation time: 0 hr 48 min 11 sec) 
select_counter is 552
Heartbeat CPU 0 instructions: 82000000 cycles: 182221237 heartbeat IPC: 0.423184 cumulative IPC: 0.407988 (Simulation time: 0 hr 48 min 41 sec) 
select_counter is 552
Heartbeat CPU 0 instructions: 83000002 cycles: 184541979 heartbeat IPC: 0.430898 cumulative IPC: 0.408285 (Simulation time: 0 hr 49 min 6 sec) 
select_counter is 552
Heartbeat CPU 0 instructions: 84000000 cycles: 186964531 heartbeat IPC: 0.412787 cumulative IPC: 0.408346 (Simulation time: 0 hr 49 min 33 sec) 
select_counter is 552
Heartbeat CPU 0 instructions: 85000000 cycles: 189338899 heartbeat IPC: 0.421165 cumulative IPC: 0.408511 (Simulation time: 0 hr 49 min 58 sec) 
select_counter is 551
Heartbeat CPU 0 instructions: 86000000 cycles: 191688738 heartbeat IPC: 0.425561 cumulative IPC: 0.408727 (Simulation time: 0 hr 50 min 20 sec) 
select_counter is 550
Heartbeat CPU 0 instructions: 87000001 cycles: 194135057 heartbeat IPC: 0.408778 cumulative IPC: 0.408727 (Simulation time: 0 hr 50 min 43 sec) 
select_counter is 550
Heartbeat CPU 0 instructions: 88000000 cycles: 196500711 heartbeat IPC: 0.422716 cumulative IPC: 0.408901 (Simulation time: 0 hr 51 min 4 sec) 
select_counter is 550
Heartbeat CPU 0 instructions: 89000002 cycles: 198825979 heartbeat IPC: 0.430059 cumulative IPC: 0.409156 (Simulation time: 0 hr 51 min 24 sec) 
select_counter is 550
Heartbeat CPU 0 instructions: 90000002 cycles: 201189630 heartbeat IPC: 0.423074 cumulative IPC: 0.409324 (Simulation time: 0 hr 51 min 46 sec) 
select_counter is 550
Heartbeat CPU 0 instructions: 91000003 cycles: 203606193 heartbeat IPC: 0.413811 cumulative IPC: 0.409379 (Simulation time: 0 hr 52 min 5 sec) 
select_counter is 550
Heartbeat CPU 0 instructions: 92000000 cycles: 205964765 heartbeat IPC: 0.423984 cumulative IPC: 0.409551 (Simulation time: 0 hr 52 min 24 sec) 
select_counter is 550
Heartbeat CPU 0 instructions: 93000001 cycles: 208311505 heartbeat IPC: 0.426123 cumulative IPC: 0.409743 (Simulation time: 0 hr 52 min 45 sec) 
select_counter is 550
Heartbeat CPU 0 instructions: 94000002 cycles: 210763967 heartbeat IPC: 0.407754 cumulative IPC: 0.409719 (Simulation time: 0 hr 53 min 4 sec) 
select_counter is 550
Heartbeat CPU 0 instructions: 95000000 cycles: 213124984 heartbeat IPC: 0.423545 cumulative IPC: 0.409877 (Simulation time: 0 hr 53 min 21 sec) 
select_counter is 550
Heartbeat CPU 0 instructions: 96000000 cycles: 215448275 heartbeat IPC: 0.430424 cumulative IPC: 0.410104 (Simulation time: 0 hr 53 min 37 sec) 
select_counter is 549
Heartbeat CPU 0 instructions: 97000000 cycles: 217835106 heartbeat IPC: 0.418966 cumulative IPC: 0.410204 (Simulation time: 0 hr 53 min 53 sec) 
select_counter is 549
Heartbeat CPU 0 instructions: 98000001 cycles: 220235119 heartbeat IPC: 0.416665 cumulative IPC: 0.410276 (Simulation time: 0 hr 54 min 10 sec) 
select_counter is 549
Heartbeat CPU 0 instructions: 99000002 cycles: 222593708 heartbeat IPC: 0.423983 cumulative IPC: 0.410425 (Simulation time: 0 hr 54 min 24 sec) 
select_counter is 548
Heartbeat CPU 0 instructions: 100000000 cycles: 224946237 heartbeat IPC: 0.425074 cumulative IPC: 0.410583 (Simulation time: 0 hr 54 min 36 sec) 
select_counter is 545
Heartbeat CPU 0 instructions: 101000000 cycles: 227361689 heartbeat IPC: 0.414001 cumulative IPC: 0.41062 (Simulation time: 0 hr 54 min 47 sec) 
select_counter is 545
Heartbeat CPU 0 instructions: 102000000 cycles: 229594822 heartbeat IPC: 0.447801 cumulative IPC: 0.410991 (Simulation time: 0 hr 54 min 58 sec) 
select_counter is 545
Heartbeat CPU 0 instructions: 103000001 cycles: 232099422 heartbeat IPC: 0.399266 cumulative IPC: 0.410861 (Simulation time: 0 hr 55 min 9 sec) 
select_counter is 545
Heartbeat CPU 0 instructions: 104000000 cycles: 234601942 heartbeat IPC: 0.399597 cumulative IPC: 0.410738 (Simulation time: 0 hr 55 min 20 sec) 
select_counter is 545
Heartbeat CPU 0 instructions: 105000000 cycles: 237101815 heartbeat IPC: 0.40002 cumulative IPC: 0.410622 (Simulation time: 0 hr 55 min 31 sec) 
select_counter is 545
Heartbeat CPU 0 instructions: 106000000 cycles: 239598020 heartbeat IPC: 0.400608 cumulative IPC: 0.410515 (Simulation time: 0 hr 55 min 41 sec) 
select_counter is 545
Heartbeat CPU 0 instructions: 107000001 cycles: 242088612 heartbeat IPC: 0.401511 cumulative IPC: 0.41042 (Simulation time: 0 hr 55 min 49 sec) 
select_counter is 545
Heartbeat CPU 0 instructions: 108000000 cycles: 244569018 heartbeat IPC: 0.403159 cumulative IPC: 0.410345 (Simulation time: 0 hr 55 min 56 sec) 
select_counter is 545
Heartbeat CPU 0 instructions: 109000002 cycles: 247025167 heartbeat IPC: 0.407142 cumulative IPC: 0.410312 (Simulation time: 0 hr 56 min 3 sec) 
select_counter is 545
Heartbeat CPU 0 instructions: 110000000 cycles: 249344614 heartbeat IPC: 0.431136 cumulative IPC: 0.410511 (Simulation time: 0 hr 56 min 8 sec) 
select_counter is 545
Finished CPU 0 instructions: 100000000 cycles: 243599151 cummulative IPC: 0.41051 (Simulation time: 0 hr 56 min 8 sec) 

ChampSim completed all CPUs

Region of Interest Statistics

CPU 0 cummulative IPC: 0.41051 instructions: 100000000 cycles: 243599151
LLC TOTAL     ACCESS:     157868  HIT:     131803  MISS:      26065
LLC LOAD      ACCESS:      71020  HIT:      61620  MISS:       9400
LLC RFO       ACCESS:      11273  HIT:       5550  MISS:       5723
LLC PREFETCH  ACCESS:      50722  HIT:      40338  MISS:      10384
LLC WRITEBACK ACCESS:      24853  HIT:      24295  MISS:        558
Ship samples: 
20, 43, 75, 115, 151, 171, 202, 236, 271, 303, 333, 372, 399, 443, 467, 481, 514, 572, 603, 636, 668, 678, 727, 761, 769, 808, 860, 885, 911, 937, 982, 1016, 1031, 1074, 1089, 1138, 1162, 1184, 1234, 1278, 1296, 1335, 1345, 1404, 1420, 1447, 1481, 1517, 1540, 1574, 1604, 1647, 1681, 1707, 1751, 1790, 1813, 1844, 1880, 1895, 1934, 1978, 1997, 2023, 
Lime duel samples: 
3, 60, 84, 110, 142, 172, 211, 240, 275, 302, 321, 371, 391, 434, 478, 486, 520, 556, 589, 623, 658, 679, 710, 754, 775, 809, 846, 893, 907, 944, 962, 1002, 1047, 1061, 1110, 1124, 1161, 1208, 1245, 1255, 1307, 1324, 1357, 1378, 1425, 1470, 1494, 1535, 1552, 1599, 1606, 1657, 1678, 1711, 1731, 1769, 1799, 1845, 1878, 1904, 1924, 1966, 2007, 2024, 
Lime samples: 
3, 110, 211, 302, 391, 486, 589, 679, 775, 893, 962, 1061, 1161, 1255, 1357, 1470, 1552, 1657, 1731, 1845, 1924, 
Insertion Distribution: 
	LOAD 257 0 0 0 0 0 6359 8 
	RFO 1 0 0 0 0 0 3984 0 
	PREF 0 154 0 0 0 0 6765 4 
	WRITEBACK 0 0 0 0 0 0 0 268 
Total Prefetch Downgrades: 341
