
*** ChampSim Multicore Out-of-Order Simulator ***

Warmup Instructions: 10000000
Simulation Instructions: 100000000
Configuration: 2
Number of CPUs: 1
LLC sets: 2048
LLC ways: 16
Off-chip DRAM Channels: 1 Width: 64-bit Data Rate: 1600 MT/s

CPU 0 runs /datasets/cs240c-wi22-a00-public/data/Assignment2-gz/sphinx3_1339B.trace.gz
CPU 0 L1D next line prefetcher
CPU 0 L2C IP-based stride prefetcher
Heartbeat CPU 0 instructions: 1000000 cycles: 339022 heartbeat IPC: 2.94966 cumulative IPC: 2.94966 (Simulation time: 0 hr 0 min 23 sec) 
select_counter is 512
Heartbeat CPU 0 instructions: 2000001 cycles: 693417 heartbeat IPC: 2.82171 cumulative IPC: 2.88427 (Simulation time: 0 hr 0 min 50 sec) 
select_counter is 526
Heartbeat CPU 0 instructions: 3000000 cycles: 1084504 heartbeat IPC: 2.55697 cumulative IPC: 2.76624 (Simulation time: 0 hr 1 min 17 sec) 
select_counter is 535
Heartbeat CPU 0 instructions: 4000000 cycles: 1530037 heartbeat IPC: 2.2445 cumulative IPC: 2.61432 (Simulation time: 0 hr 1 min 43 sec) 
select_counter is 486
Heartbeat CPU 0 instructions: 5000003 cycles: 1869057 heartbeat IPC: 2.94969 cumulative IPC: 2.67515 (Simulation time: 0 hr 2 min 6 sec) 
select_counter is 370
Heartbeat CPU 0 instructions: 6000002 cycles: 2253250 heartbeat IPC: 2.60286 cumulative IPC: 2.66282 (Simulation time: 0 hr 2 min 31 sec) 
select_counter is 154
Heartbeat CPU 0 instructions: 7000001 cycles: 2717161 heartbeat IPC: 2.15558 cumulative IPC: 2.57622 (Simulation time: 0 hr 2 min 55 sec) 
select_counter is 976
Heartbeat CPU 0 instructions: 8000000 cycles: 3056032 heartbeat IPC: 2.95097 cumulative IPC: 2.61777 (Simulation time: 0 hr 3 min 21 sec) 
select_counter is 916
Heartbeat CPU 0 instructions: 9000003 cycles: 3412599 heartbeat IPC: 2.80453 cumulative IPC: 2.63729 (Simulation time: 0 hr 3 min 46 sec) 
select_counter is 778
Heartbeat CPU 0 instructions: 10000001 cycles: 3799415 heartbeat IPC: 2.5852 cumulative IPC: 2.63198 (Simulation time: 0 hr 4 min 14 sec) 
select_counter is 497

Warmup complete CPU 0 instructions: 10000001 cycles: 3799415 (Simulation time: 0 hr 4 min 14 sec) 

Heartbeat CPU 0 instructions: 11000000 cycles: 4663178 heartbeat IPC: 1.15772 cumulative IPC: 1.15772 (Simulation time: 0 hr 4 min 44 sec) 
select_counter is 429
Heartbeat CPU 0 instructions: 12000000 cycles: 5457375 heartbeat IPC: 1.25913 cumulative IPC: 1.2063 (Simulation time: 0 hr 5 min 10 sec) 
select_counter is 330
Heartbeat CPU 0 instructions: 13000000 cycles: 6779035 heartbeat IPC: 0.756624 cumulative IPC: 1.00684 (Simulation time: 0 hr 5 min 40 sec) 
select_counter is 137
Heartbeat CPU 0 instructions: 14000000 cycles: 7650280 heartbeat IPC: 1.14778 cumulative IPC: 1.03873 (Simulation time: 0 hr 6 min 8 sec) 
select_counter is 984
Heartbeat CPU 0 instructions: 15000001 cycles: 8480644 heartbeat IPC: 1.20429 cumulative IPC: 1.0681 (Simulation time: 0 hr 6 min 35 sec) 
select_counter is 934
Heartbeat CPU 0 instructions: 16000000 cycles: 9489318 heartbeat IPC: 0.9914 cumulative IPC: 1.0545 (Simulation time: 0 hr 7 min 0 sec) 
select_counter is 767
Heartbeat CPU 0 instructions: 17000001 cycles: 10811511 heartbeat IPC: 0.75632 cumulative IPC: 0.998275 (Simulation time: 0 hr 7 min 32 sec) 
select_counter is 684
Heartbeat CPU 0 instructions: 18000003 cycles: 11868925 heartbeat IPC: 0.945705 cumulative IPC: 0.991386 (Simulation time: 0 hr 8 min 2 sec) 
select_counter is 631
Heartbeat CPU 0 instructions: 19000002 cycles: 12704511 heartbeat IPC: 1.19676 cumulative IPC: 1.01066 (Simulation time: 0 hr 8 min 31 sec) 
select_counter is 545
Heartbeat CPU 0 instructions: 20000000 cycles: 13533500 heartbeat IPC: 1.20629 cumulative IPC: 1.02732 (Simulation time: 0 hr 9 min 1 sec) 
select_counter is 504
Heartbeat CPU 0 instructions: 21000000 cycles: 14671313 heartbeat IPC: 0.878879 cumulative IPC: 1.01178 (Simulation time: 0 hr 9 min 31 sec) 
select_counter is 329
Heartbeat CPU 0 instructions: 22000000 cycles: 15649585 heartbeat IPC: 1.02221 cumulative IPC: 1.01264 (Simulation time: 0 hr 9 min 59 sec) 
select_counter is 172
Heartbeat CPU 0 instructions: 23000003 cycles: 16500102 heartbeat IPC: 1.17576 cumulative IPC: 1.02357 (Simulation time: 0 hr 10 min 28 sec) 
select_counter is 162
Heartbeat CPU 0 instructions: 24000000 cycles: 17422009 heartbeat IPC: 1.0847 cumulative IPC: 1.0277 (Simulation time: 0 hr 10 min 57 sec) 
select_counter is 62
Heartbeat CPU 0 instructions: 25000001 cycles: 18346799 heartbeat IPC: 1.08133 cumulative IPC: 1.03111 (Simulation time: 0 hr 11 min 27 sec) 
select_counter is 893
Heartbeat CPU 0 instructions: 26000003 cycles: 19153935 heartbeat IPC: 1.23895 cumulative IPC: 1.04204 (Simulation time: 0 hr 11 min 53 sec) 
select_counter is 879
Heartbeat CPU 0 instructions: 27000000 cycles: 19954014 heartbeat IPC: 1.24987 cumulative IPC: 1.05233 (Simulation time: 0 hr 12 min 22 sec) 
select_counter is 819
Heartbeat CPU 0 instructions: 28000000 cycles: 20865700 heartbeat IPC: 1.09687 cumulative IPC: 1.05471 (Simulation time: 0 hr 12 min 51 sec) 
select_counter is 614
Heartbeat CPU 0 instructions: 29000003 cycles: 21671934 heartbeat IPC: 1.24034 cumulative IPC: 1.06308 (Simulation time: 0 hr 13 min 17 sec) 
select_counter is 592
Heartbeat CPU 0 instructions: 30000003 cycles: 22465139 heartbeat IPC: 1.26071 cumulative IPC: 1.07148 (Simulation time: 0 hr 13 min 44 sec) 
select_counter is 539
Heartbeat CPU 0 instructions: 31000002 cycles: 23347988 heartbeat IPC: 1.1327 cumulative IPC: 1.07425 (Simulation time: 0 hr 14 min 12 sec) 
select_counter is 359
Heartbeat CPU 0 instructions: 32000000 cycles: 24202100 heartbeat IPC: 1.1708 cumulative IPC: 1.07829 (Simulation time: 0 hr 14 min 41 sec) 
select_counter is 314
Heartbeat CPU 0 instructions: 33000001 cycles: 25005596 heartbeat IPC: 1.24456 cumulative IPC: 1.08459 (Simulation time: 0 hr 15 min 11 sec) 
select_counter is 266
Heartbeat CPU 0 instructions: 34000001 cycles: 26366926 heartbeat IPC: 0.734576 cumulative IPC: 1.06348 (Simulation time: 0 hr 15 min 40 sec) 
select_counter is 176
Heartbeat CPU 0 instructions: 35000000 cycles: 27271182 heartbeat IPC: 1.10588 cumulative IPC: 1.06511 (Simulation time: 0 hr 16 min 8 sec) 
select_counter is 56
Heartbeat CPU 0 instructions: 36000000 cycles: 28136846 heartbeat IPC: 1.15518 cumulative IPC: 1.06831 (Simulation time: 0 hr 16 min 35 sec) 
select_counter is 59
Heartbeat CPU 0 instructions: 37000003 cycles: 29137185 heartbeat IPC: 0.999664 cumulative IPC: 1.0656 (Simulation time: 0 hr 17 min 3 sec) 
select_counter is 1019
Heartbeat CPU 0 instructions: 38000000 cycles: 30282991 heartbeat IPC: 0.872745 cumulative IPC: 1.05726 (Simulation time: 0 hr 17 min 32 sec) 
select_counter is 873
Heartbeat CPU 0 instructions: 39000000 cycles: 31146124 heartbeat IPC: 1.15857 cumulative IPC: 1.06046 (Simulation time: 0 hr 17 min 59 sec) 
select_counter is 832
Heartbeat CPU 0 instructions: 40000000 cycles: 31968587 heartbeat IPC: 1.21586 cumulative IPC: 1.06499 (Simulation time: 0 hr 18 min 26 sec) 
select_counter is 790
Heartbeat CPU 0 instructions: 41000000 cycles: 33154569 heartbeat IPC: 0.843183 cumulative IPC: 1.05603 (Simulation time: 0 hr 18 min 52 sec) 
select_counter is 683
Heartbeat CPU 0 instructions: 42000002 cycles: 34014403 heartbeat IPC: 1.16302 cumulative IPC: 1.05908 (Simulation time: 0 hr 19 min 15 sec) 
select_counter is 570
Heartbeat CPU 0 instructions: 43000001 cycles: 34859056 heartbeat IPC: 1.18392 cumulative IPC: 1.06247 (Simulation time: 0 hr 19 min 39 sec) 
select_counter is 552
Heartbeat CPU 0 instructions: 44000000 cycles: 35874722 heartbeat IPC: 0.984575 cumulative IPC: 1.06001 (Simulation time: 0 hr 20 min 3 sec) 
select_counter is 477
Heartbeat CPU 0 instructions: 45000002 cycles: 36871519 heartbeat IPC: 1.00322 cumulative IPC: 1.05829 (Simulation time: 0 hr 20 min 27 sec) 
select_counter is 335
Heartbeat CPU 0 instructions: 46000003 cycles: 37691546 heartbeat IPC: 1.21947 cumulative IPC: 1.06219 (Simulation time: 0 hr 20 min 52 sec) 
select_counter is 315
Heartbeat CPU 0 instructions: 47000001 cycles: 38517948 heartbeat IPC: 1.21006 cumulative IPC: 1.06571 (Simulation time: 0 hr 21 min 16 sec) 
select_counter is 284
Heartbeat CPU 0 instructions: 48000000 cycles: 39507914 heartbeat IPC: 1.01013 cumulative IPC: 1.06417 (Simulation time: 0 hr 21 min 42 sec) 
select_counter is 155
Heartbeat CPU 0 instructions: 49000000 cycles: 40342716 heartbeat IPC: 1.19789 cumulative IPC: 1.06723 (Simulation time: 0 hr 22 min 6 sec) 
select_counter is 124
Heartbeat CPU 0 instructions: 50000000 cycles: 41156165 heartbeat IPC: 1.22933 cumulative IPC: 1.07076 (Simulation time: 0 hr 22 min 30 sec) 
select_counter is 93
Heartbeat CPU 0 instructions: 51000003 cycles: 42351383 heartbeat IPC: 0.83667 cumulative IPC: 1.0635 (Simulation time: 0 hr 22 min 55 sec) 
select_counter is 0
Heartbeat CPU 0 instructions: 52000000 cycles: 43174083 heartbeat IPC: 1.21551 cumulative IPC: 1.06668 (Simulation time: 0 hr 23 min 17 sec) 
select_counter is 939
Heartbeat CPU 0 instructions: 53000002 cycles: 44004453 heartbeat IPC: 1.20428 cumulative IPC: 1.06952 (Simulation time: 0 hr 23 min 40 sec) 
select_counter is 946
Heartbeat CPU 0 instructions: 54000003 cycles: 45114635 heartbeat IPC: 0.900754 cumulative IPC: 1.06498 (Simulation time: 0 hr 24 min 5 sec) 
select_counter is 847
Heartbeat CPU 0 instructions: 55000001 cycles: 46003943 heartbeat IPC: 1.12447 cumulative IPC: 1.06624 (Simulation time: 0 hr 24 min 31 sec) 
select_counter is 746
Heartbeat CPU 0 instructions: 56000000 cycles: 46834785 heartbeat IPC: 1.2036 cumulative IPC: 1.06889 (Simulation time: 0 hr 24 min 55 sec) 
select_counter is 716
Heartbeat CPU 0 instructions: 57000000 cycles: 47777581 heartbeat IPC: 1.06067 cumulative IPC: 1.06871 (Simulation time: 0 hr 25 min 18 sec) 
select_counter is 658
Heartbeat CPU 0 instructions: 58000000 cycles: 48835994 heartbeat IPC: 0.944811 cumulative IPC: 1.0658 (Simulation time: 0 hr 25 min 43 sec) 
select_counter is 518
Heartbeat CPU 0 instructions: 59000001 cycles: 49653906 heartbeat IPC: 1.22263 cumulative IPC: 1.0686 (Simulation time: 0 hr 26 min 4 sec) 
select_counter is 472
Heartbeat CPU 0 instructions: 60000000 cycles: 50474494 heartbeat IPC: 1.21864 cumulative IPC: 1.07124 (Simulation time: 0 hr 26 min 27 sec) 
select_counter is 465
Heartbeat CPU 0 instructions: 61000000 cycles: 51780050 heartbeat IPC: 0.765957 cumulative IPC: 1.06293 (Simulation time: 0 hr 26 min 51 sec) 
select_counter is 399
Heartbeat CPU 0 instructions: 62000002 cycles: 52923609 heartbeat IPC: 0.874465 cumulative IPC: 1.05854 (Simulation time: 0 hr 27 min 14 sec) 
select_counter is 398
Heartbeat CPU 0 instructions: 63000003 cycles: 53734625 heartbeat IPC: 1.23302 cumulative IPC: 1.06138 (Simulation time: 0 hr 27 min 33 sec) 
select_counter is 263
Heartbeat CPU 0 instructions: 64000000 cycles: 54569689 heartbeat IPC: 1.19751 cumulative IPC: 1.06361 (Simulation time: 0 hr 27 min 55 sec) 
select_counter is 269
Heartbeat CPU 0 instructions: 65000000 cycles: 55622655 heartbeat IPC: 0.949698 cumulative IPC: 1.0613 (Simulation time: 0 hr 28 min 19 sec) 
select_counter is 202
Heartbeat CPU 0 instructions: 66000001 cycles: 56613824 heartbeat IPC: 1.00891 cumulative IPC: 1.06032 (Simulation time: 0 hr 28 min 41 sec) 
select_counter is 114
Heartbeat CPU 0 instructions: 67000000 cycles: 57426687 heartbeat IPC: 1.23022 cumulative IPC: 1.06289 (Simulation time: 0 hr 29 min 2 sec) 
select_counter is 76
Heartbeat CPU 0 instructions: 68000000 cycles: 58301415 heartbeat IPC: 1.14321 cumulative IPC: 1.06418 (Simulation time: 0 hr 29 min 25 sec) 
select_counter is 51
Heartbeat CPU 0 instructions: 69000003 cycles: 59407121 heartbeat IPC: 0.904402 cumulative IPC: 1.061 (Simulation time: 0 hr 29 min 48 sec) 
select_counter is 955
Heartbeat CPU 0 instructions: 70000001 cycles: 60234940 heartbeat IPC: 1.20799 cumulative IPC: 1.06316 (Simulation time: 0 hr 30 min 10 sec) 
select_counter is 886
Heartbeat CPU 0 instructions: 71000001 cycles: 61056554 heartbeat IPC: 1.21712 cumulative IPC: 1.06537 (Simulation time: 0 hr 30 min 31 sec) 
select_counter is 874
Heartbeat CPU 0 instructions: 72000000 cycles: 62212471 heartbeat IPC: 0.865113 cumulative IPC: 1.06141 (Simulation time: 0 hr 30 min 54 sec) 
select_counter is 770
Heartbeat CPU 0 instructions: 73000001 cycles: 63023244 heartbeat IPC: 1.23339 cumulative IPC: 1.06376 (Simulation time: 0 hr 31 min 16 sec) 
select_counter is 674
Heartbeat CPU 0 instructions: 74000000 cycles: 63854336 heartbeat IPC: 1.20324 cumulative IPC: 1.06569 (Simulation time: 0 hr 31 min 37 sec) 
select_counter is 679
Heartbeat CPU 0 instructions: 75000003 cycles: 64891010 heartbeat IPC: 0.964626 cumulative IPC: 1.06398 (Simulation time: 0 hr 32 min 0 sec) 
select_counter is 578
Heartbeat CPU 0 instructions: 76000000 cycles: 65820231 heartbeat IPC: 1.07617 cumulative IPC: 1.06416 (Simulation time: 0 hr 32 min 25 sec) 
select_counter is 494
Heartbeat CPU 0 instructions: 77000002 cycles: 66625132 heartbeat IPC: 1.24239 cumulative IPC: 1.06644 (Simulation time: 0 hr 32 min 46 sec) 
select_counter is 448
Heartbeat CPU 0 instructions: 78000002 cycles: 67522458 heartbeat IPC: 1.11442 cumulative IPC: 1.06712 (Simulation time: 0 hr 33 min 11 sec) 
select_counter is 410
Heartbeat CPU 0 instructions: 79000001 cycles: 68576107 heartbeat IPC: 0.949082 cumulative IPC: 1.0652 (Simulation time: 0 hr 33 min 33 sec) 
select_counter is 272
Heartbeat CPU 0 instructions: 80000000 cycles: 69409605 heartbeat IPC: 1.19976 cumulative IPC: 1.06691 (Simulation time: 0 hr 33 min 57 sec) 
select_counter is 224
Heartbeat CPU 0 instructions: 81000003 cycles: 70237652 heartbeat IPC: 1.20766 cumulative IPC: 1.06866 (Simulation time: 0 hr 34 min 19 sec) 
select_counter is 222
Heartbeat CPU 0 instructions: 82000000 cycles: 71372297 heartbeat IPC: 0.88133 cumulative IPC: 1.06552 (Simulation time: 0 hr 34 min 42 sec) 
select_counter is 98
Heartbeat CPU 0 instructions: 83000001 cycles: 72194373 heartbeat IPC: 1.21643 cumulative IPC: 1.06733 (Simulation time: 0 hr 35 min 3 sec) 
select_counter is 1017
Heartbeat CPU 0 instructions: 84000000 cycles: 73028592 heartbeat IPC: 1.19872 cumulative IPC: 1.06891 (Simulation time: 0 hr 35 min 26 sec) 
select_counter is 1009
Heartbeat CPU 0 instructions: 85000002 cycles: 74121265 heartbeat IPC: 0.915189 cumulative IPC: 1.06652 (Simulation time: 0 hr 35 min 49 sec) 
select_counter is 909
Heartbeat CPU 0 instructions: 86000003 cycles: 74984873 heartbeat IPC: 1.15793 cumulative IPC: 1.06763 (Simulation time: 0 hr 36 min 10 sec) 
select_counter is 818
Heartbeat CPU 0 instructions: 87000001 cycles: 75801870 heartbeat IPC: 1.22399 cumulative IPC: 1.06941 (Simulation time: 0 hr 36 min 30 sec) 
select_counter is 801
Heartbeat CPU 0 instructions: 88000000 cycles: 76776915 heartbeat IPC: 1.02559 cumulative IPC: 1.06882 (Simulation time: 0 hr 36 min 50 sec) 
select_counter is 738
Heartbeat CPU 0 instructions: 89000000 cycles: 77766855 heartbeat IPC: 1.01016 cumulative IPC: 1.06804 (Simulation time: 0 hr 37 min 11 sec) 
select_counter is 625
Heartbeat CPU 0 instructions: 90000003 cycles: 78555766 heartbeat IPC: 1.26757 cumulative IPC: 1.07014 (Simulation time: 0 hr 37 min 33 sec) 
select_counter is 593
Heartbeat CPU 0 instructions: 91000000 cycles: 79383577 heartbeat IPC: 1.208 cumulative IPC: 1.07165 (Simulation time: 0 hr 37 min 54 sec) 
select_counter is 572
Heartbeat CPU 0 instructions: 92000000 cycles: 80517944 heartbeat IPC: 0.881549 cumulative IPC: 1.06884 (Simulation time: 0 hr 38 min 18 sec) 
select_counter is 421
Heartbeat CPU 0 instructions: 93000001 cycles: 81342958 heartbeat IPC: 1.2121 cumulative IPC: 1.07037 (Simulation time: 0 hr 38 min 39 sec) 
select_counter is 356
Heartbeat CPU 0 instructions: 94000001 cycles: 82165111 heartbeat IPC: 1.21632 cumulative IPC: 1.0719 (Simulation time: 0 hr 39 min 1 sec) 
select_counter is 352
Heartbeat CPU 0 instructions: 95000002 cycles: 83334829 heartbeat IPC: 0.854908 cumulative IPC: 1.06871 (Simulation time: 0 hr 39 min 24 sec) 
select_counter is 252
Heartbeat CPU 0 instructions: 96000000 cycles: 84163251 heartbeat IPC: 1.20711 cumulative IPC: 1.07013 (Simulation time: 0 hr 39 min 43 sec) 
select_counter is 142
Heartbeat CPU 0 instructions: 97000002 cycles: 84997987 heartbeat IPC: 1.19799 cumulative IPC: 1.07145 (Simulation time: 0 hr 40 min 3 sec) 
select_counter is 151
Heartbeat CPU 0 instructions: 98000000 cycles: 86068784 heartbeat IPC: 0.933882 cumulative IPC: 1.06966 (Simulation time: 0 hr 40 min 24 sec) 
select_counter is 101
Heartbeat CPU 0 instructions: 99000003 cycles: 87152627 heartbeat IPC: 0.922646 cumulative IPC: 1.06775 (Simulation time: 0 hr 40 min 47 sec) 
select_counter is 12
Heartbeat CPU 0 instructions: 100000000 cycles: 87958963 heartbeat IPC: 1.24017 cumulative IPC: 1.0694 (Simulation time: 0 hr 41 min 10 sec) 
select_counter is 971
Heartbeat CPU 0 instructions: 101000000 cycles: 88795217 heartbeat IPC: 1.19581 cumulative IPC: 1.07064 (Simulation time: 0 hr 41 min 30 sec) 
select_counter is 960
Heartbeat CPU 0 instructions: 102000001 cycles: 90236065 heartbeat IPC: 0.694036 cumulative IPC: 1.06436 (Simulation time: 0 hr 41 min 52 sec) 
select_counter is 937
Heartbeat CPU 0 instructions: 103000000 cycles: 91507486 heartbeat IPC: 0.786521 cumulative IPC: 1.06034 (Simulation time: 0 hr 42 min 14 sec) 
select_counter is 973
Heartbeat CPU 0 instructions: 104000000 cycles: 92441741 heartbeat IPC: 1.07037 cumulative IPC: 1.06044 (Simulation time: 0 hr 42 min 34 sec) 
select_counter is 940
Heartbeat CPU 0 instructions: 105000003 cycles: 93237847 heartbeat IPC: 1.25612 cumulative IPC: 1.06218 (Simulation time: 0 hr 42 min 55 sec) 
select_counter is 881
Heartbeat CPU 0 instructions: 106000000 cycles: 94100149 heartbeat IPC: 1.15968 cumulative IPC: 1.06311 (Simulation time: 0 hr 43 min 15 sec) 
select_counter is 878
Heartbeat CPU 0 instructions: 107000001 cycles: 95540521 heartbeat IPC: 0.694266 cumulative IPC: 1.05732 (Simulation time: 0 hr 43 min 36 sec) 
select_counter is 855
Heartbeat CPU 0 instructions: 108000000 cycles: 96421611 heartbeat IPC: 1.13496 cumulative IPC: 1.05806 (Simulation time: 0 hr 43 min 59 sec) 
select_counter is 796
Heartbeat CPU 0 instructions: 109000000 cycles: 97248836 heartbeat IPC: 1.20886 cumulative IPC: 1.0594 (Simulation time: 0 hr 44 min 19 sec) 
select_counter is 749
Heartbeat CPU 0 instructions: 110000000 cycles: 98355011 heartbeat IPC: 0.904016 cumulative IPC: 1.05758 (Simulation time: 0 hr 44 min 41 sec) 
select_counter is 721
Finished CPU 0 instructions: 100000000 cycles: 94555598 cummulative IPC: 1.05758 (Simulation time: 0 hr 44 min 41 sec) 

ChampSim completed all CPUs

Region of Interest Statistics

CPU 0 cummulative IPC: 1.05758 instructions: 100000000 cycles: 94555598
LLC TOTAL     ACCESS:    1574044  HIT:     824666  MISS:     749378
LLC LOAD      ACCESS:     202296  HIT:     172119  MISS:      30177
LLC RFO       ACCESS:     111362  HIT:     108946  MISS:       2416
LLC PREFETCH  ACCESS:    1127232  HIT:     411493  MISS:     715739
LLC WRITEBACK ACCESS:     133154  HIT:     132108  MISS:       1046
Ship samples: 
0, 33, 67, 119, 133, 180, 213, 253, 282, 310, 347, 369, 410, 421, 455, 490, 525, 545, 594, 630, 655, 676, 713, 761, 784, 831, 853, 866, 916, 937, 963, 1016, 1042, 1057, 1119, 1145, 1181, 1202, 1239, 1250, 1305, 1327, 1360, 1392, 1419, 1454, 1482, 1532, 1551, 1574, 1622, 1655, 1694, 1714, 1759, 1789, 1814, 1832, 1886, 1898, 1938, 1975, 2015, 2041, 
Lime duel samples: 
19, 55, 89, 103, 134, 183, 205, 254, 277, 289, 321, 376, 399, 428, 470, 502, 520, 555, 592, 632, 663, 682, 708, 738, 771, 804, 840, 878, 897, 953, 970, 1009, 1038, 1064, 1098, 1144, 1161, 1214, 1247, 1269, 1287, 1313, 1359, 1394, 1412, 1465, 1486, 1510, 1564, 1597, 1614, 1632, 1683, 1706, 1749, 1780, 1817, 1836, 1862, 1912, 1929, 1976, 2012, 2036, 
Lime samples: 
19, 103, 205, 289, 399, 502, 592, 682, 771, 878, 970, 1064, 1161, 1269, 1359, 1465, 1564, 1632, 1749, 1836, 1929, 
Insertion Distribution: 
	LOAD 8067 0 0 0 0 0 6493 2349 
	RFO 303 0 0 0 0 0 818 69 
	PREF 0 1632 0 0 0 0 61832 321833 
	WRITEBACK 0 0 0 0 0 0 0 955 
Total Prefetch Downgrades: 8571
