
*** ChampSim Multicore Out-of-Order Simulator ***

Warmup Instructions: 10000000
Simulation Instructions: 100000000
Configuration: 2
Number of CPUs: 1
LLC sets: 2048
LLC ways: 16
Off-chip DRAM Channels: 1 Width: 64-bit Data Rate: 1600 MT/s

CPU 0 runs /datasets/cs240c-wi22-a00-public/data/Assignment2-gz/milc_409B.trace.gz
CPU 0 L1D next line prefetcher
CPU 0 L2C IP-based stride prefetcher
Heartbeat CPU 0 instructions: 1000002 cycles: 407040 heartbeat IPC: 2.45677 cumulative IPC: 2.45677 (Simulation time: 0 hr 0 min 25 sec) 
select_counter is 429
Heartbeat CPU 0 instructions: 2000002 cycles: 889868 heartbeat IPC: 2.07113 cumulative IPC: 2.24753 (Simulation time: 0 hr 0 min 53 sec) 
select_counter is 562
Heartbeat CPU 0 instructions: 3000003 cycles: 1672035 heartbeat IPC: 1.2785 cumulative IPC: 1.79422 (Simulation time: 0 hr 1 min 27 sec) 
select_counter is 1023
Heartbeat CPU 0 instructions: 4000000 cycles: 2454292 heartbeat IPC: 1.27835 cumulative IPC: 1.6298 (Simulation time: 0 hr 2 min 0 sec) 
select_counter is 1022
Heartbeat CPU 0 instructions: 5000000 cycles: 3135412 heartbeat IPC: 1.46817 cumulative IPC: 1.59469 (Simulation time: 0 hr 2 min 29 sec) 
select_counter is 832
Heartbeat CPU 0 instructions: 6000003 cycles: 3679804 heartbeat IPC: 1.83692 cumulative IPC: 1.63052 (Simulation time: 0 hr 2 min 58 sec) 
select_counter is 503
Heartbeat CPU 0 instructions: 7000002 cycles: 4224110 heartbeat IPC: 1.8372 cumulative IPC: 1.65715 (Simulation time: 0 hr 3 min 25 sec) 
select_counter is 40
Heartbeat CPU 0 instructions: 8000000 cycles: 4768518 heartbeat IPC: 1.83685 cumulative IPC: 1.67767 (Simulation time: 0 hr 3 min 50 sec) 
select_counter is 589
Heartbeat CPU 0 instructions: 9000003 cycles: 5312844 heartbeat IPC: 1.83714 cumulative IPC: 1.69401 (Simulation time: 0 hr 4 min 13 sec) 
select_counter is 991
Heartbeat CPU 0 instructions: 10000000 cycles: 5857232 heartbeat IPC: 1.83692 cumulative IPC: 1.70729 (Simulation time: 0 hr 4 min 37 sec) 
select_counter is 454

Warmup complete CPU 0 instructions: 10000002 cycles: 5857233 (Simulation time: 0 hr 4 min 37 sec) 

Heartbeat CPU 0 instructions: 11000002 cycles: 7522645 heartbeat IPC: 0.600453 cumulative IPC: 0.600452 (Simulation time: 0 hr 5 min 7 sec) 
select_counter is 29
Heartbeat CPU 0 instructions: 12000000 cycles: 9185462 heartbeat IPC: 0.601388 cumulative IPC: 0.60092 (Simulation time: 0 hr 5 min 37 sec) 
select_counter is 625
Heartbeat CPU 0 instructions: 13000003 cycles: 10846556 heartbeat IPC: 0.602015 cumulative IPC: 0.601284 (Simulation time: 0 hr 6 min 4 sec) 
select_counter is 127
Heartbeat CPU 0 instructions: 14000002 cycles: 12503020 heartbeat IPC: 0.603695 cumulative IPC: 0.601885 (Simulation time: 0 hr 6 min 32 sec) 
select_counter is 675
Heartbeat CPU 0 instructions: 15000001 cycles: 14164273 heartbeat IPC: 0.601955 cumulative IPC: 0.601899 (Simulation time: 0 hr 6 min 58 sec) 
select_counter is 136
Heartbeat CPU 0 instructions: 16000000 cycles: 15823587 heartbeat IPC: 0.602658 cumulative IPC: 0.602025 (Simulation time: 0 hr 7 min 26 sec) 
select_counter is 635
Heartbeat CPU 0 instructions: 17000002 cycles: 17486466 heartbeat IPC: 0.601368 cumulative IPC: 0.601931 (Simulation time: 0 hr 7 min 54 sec) 
select_counter is 163
Heartbeat CPU 0 instructions: 18000000 cycles: 19140681 heartbeat IPC: 0.604515 cumulative IPC: 0.602253 (Simulation time: 0 hr 8 min 21 sec) 
select_counter is 593
Heartbeat CPU 0 instructions: 19000003 cycles: 20803081 heartbeat IPC: 0.601542 cumulative IPC: 0.602174 (Simulation time: 0 hr 8 min 52 sec) 
select_counter is 37
Heartbeat CPU 0 instructions: 20000000 cycles: 22461397 heartbeat IPC: 0.60302 cumulative IPC: 0.602258 (Simulation time: 0 hr 9 min 23 sec) 
select_counter is 568
Heartbeat CPU 0 instructions: 21000001 cycles: 24115101 heartbeat IPC: 0.604704 cumulative IPC: 0.60248 (Simulation time: 0 hr 9 min 57 sec) 
select_counter is 29
Heartbeat CPU 0 instructions: 22000002 cycles: 25775674 heartbeat IPC: 0.602202 cumulative IPC: 0.602457 (Simulation time: 0 hr 10 min 25 sec) 
select_counter is 563
Heartbeat CPU 0 instructions: 23000002 cycles: 27434112 heartbeat IPC: 0.602977 cumulative IPC: 0.602497 (Simulation time: 0 hr 10 min 52 sec) 
select_counter is 1013
Heartbeat CPU 0 instructions: 24000000 cycles: 29088556 heartbeat IPC: 0.604431 cumulative IPC: 0.602635 (Simulation time: 0 hr 11 min 15 sec) 
select_counter is 486
Heartbeat CPU 0 instructions: 25000002 cycles: 30746536 heartbeat IPC: 0.603145 cumulative IPC: 0.602669 (Simulation time: 0 hr 11 min 45 sec) 
select_counter is 963
Heartbeat CPU 0 instructions: 26000000 cycles: 32401518 heartbeat IPC: 0.604235 cumulative IPC: 0.602766 (Simulation time: 0 hr 12 min 20 sec) 
select_counter is 486
Heartbeat CPU 0 instructions: 27000002 cycles: 34061956 heartbeat IPC: 0.602252 cumulative IPC: 0.602736 (Simulation time: 0 hr 12 min 46 sec) 
select_counter is 11
Heartbeat CPU 0 instructions: 28000000 cycles: 35717063 heartbeat IPC: 0.604189 cumulative IPC: 0.602817 (Simulation time: 0 hr 13 min 19 sec) 
select_counter is 540
Heartbeat CPU 0 instructions: 29000002 cycles: 37368786 heartbeat IPC: 0.60543 cumulative IPC: 0.602953 (Simulation time: 0 hr 13 min 52 sec) 
select_counter is 89
Heartbeat CPU 0 instructions: 30000000 cycles: 39023067 heartbeat IPC: 0.604491 cumulative IPC: 0.60303 (Simulation time: 0 hr 14 min 25 sec) 
select_counter is 635
Heartbeat CPU 0 instructions: 31000000 cycles: 40686670 heartbeat IPC: 0.601105 cumulative IPC: 0.602938 (Simulation time: 0 hr 14 min 53 sec) 
select_counter is 130
Heartbeat CPU 0 instructions: 32000000 cycles: 42346134 heartbeat IPC: 0.602604 cumulative IPC: 0.602923 (Simulation time: 0 hr 15 min 21 sec) 
select_counter is 566
Heartbeat CPU 0 instructions: 33000000 cycles: 44010376 heartbeat IPC: 0.600874 cumulative IPC: 0.602834 (Simulation time: 0 hr 15 min 53 sec) 
select_counter is 50
Heartbeat CPU 0 instructions: 34000000 cycles: 45666623 heartbeat IPC: 0.603775 cumulative IPC: 0.602873 (Simulation time: 0 hr 16 min 24 sec) 
select_counter is 533
Heartbeat CPU 0 instructions: 35000002 cycles: 47325728 heartbeat IPC: 0.602736 cumulative IPC: 0.602867 (Simulation time: 0 hr 16 min 56 sec) 
select_counter is 79
Heartbeat CPU 0 instructions: 36000000 cycles: 48979580 heartbeat IPC: 0.604648 cumulative IPC: 0.602936 (Simulation time: 0 hr 17 min 25 sec) 
select_counter is 563
Heartbeat CPU 0 instructions: 37000000 cycles: 50638471 heartbeat IPC: 0.602812 cumulative IPC: 0.602931 (Simulation time: 0 hr 17 min 54 sec) 
select_counter is 100
Heartbeat CPU 0 instructions: 38000002 cycles: 52288458 heartbeat IPC: 0.606067 cumulative IPC: 0.603042 (Simulation time: 0 hr 18 min 26 sec) 
select_counter is 562
Heartbeat CPU 0 instructions: 39000001 cycles: 53950899 heartbeat IPC: 0.601525 cumulative IPC: 0.60299 (Simulation time: 0 hr 19 min 2 sec) 
select_counter is 25
Heartbeat CPU 0 instructions: 40000000 cycles: 55607183 heartbeat IPC: 0.603761 cumulative IPC: 0.603016 (Simulation time: 0 hr 19 min 32 sec) 
select_counter is 560
Heartbeat CPU 0 instructions: 41000002 cycles: 57260452 heartbeat IPC: 0.604863 cumulative IPC: 0.603075 (Simulation time: 0 hr 19 min 58 sec) 
select_counter is 56
Heartbeat CPU 0 instructions: 42000001 cycles: 58914180 heartbeat IPC: 0.604694 cumulative IPC: 0.603126 (Simulation time: 0 hr 20 min 31 sec) 
select_counter is 626
Heartbeat CPU 0 instructions: 43000000 cycles: 60572750 heartbeat IPC: 0.602928 cumulative IPC: 0.60312 (Simulation time: 0 hr 21 min 3 sec) 
select_counter is 46
Heartbeat CPU 0 instructions: 44000000 cycles: 62229670 heartbeat IPC: 0.603529 cumulative IPC: 0.603132 (Simulation time: 0 hr 21 min 39 sec) 
select_counter is 555
Heartbeat CPU 0 instructions: 45000000 cycles: 63889151 heartbeat IPC: 0.602598 cumulative IPC: 0.603116 (Simulation time: 0 hr 22 min 11 sec) 
select_counter is 148
Heartbeat CPU 0 instructions: 46000000 cycles: 65541819 heartbeat IPC: 0.605082 cumulative IPC: 0.603171 (Simulation time: 0 hr 22 min 39 sec) 
select_counter is 675
Heartbeat CPU 0 instructions: 47000002 cycles: 67199945 heartbeat IPC: 0.603092 cumulative IPC: 0.603169 (Simulation time: 0 hr 23 min 8 sec) 
select_counter is 157
Heartbeat CPU 0 instructions: 48000000 cycles: 68851888 heartbeat IPC: 0.605347 cumulative IPC: 0.603226 (Simulation time: 0 hr 23 min 39 sec) 
select_counter is 682
Heartbeat CPU 0 instructions: 49000000 cycles: 70509300 heartbeat IPC: 0.60335 cumulative IPC: 0.603229 (Simulation time: 0 hr 24 min 7 sec) 
select_counter is 171
Heartbeat CPU 0 instructions: 50000001 cycles: 72159786 heartbeat IPC: 0.605883 cumulative IPC: 0.603295 (Simulation time: 0 hr 24 min 35 sec) 
select_counter is 636
Heartbeat CPU 0 instructions: 51000002 cycles: 73818998 heartbeat IPC: 0.602696 cumulative IPC: 0.60328 (Simulation time: 0 hr 25 min 4 sec) 
select_counter is 91
Heartbeat CPU 0 instructions: 52000000 cycles: 75717986 heartbeat IPC: 0.526595 cumulative IPC: 0.601196 (Simulation time: 0 hr 25 min 35 sec) 
select_counter is 645
Heartbeat CPU 0 instructions: 53000001 cycles: 77880730 heartbeat IPC: 0.462376 cumulative IPC: 0.597027 (Simulation time: 0 hr 26 min 7 sec) 
select_counter is 538
Heartbeat CPU 0 instructions: 54000001 cycles: 80023327 heartbeat IPC: 0.466723 cumulative IPC: 0.593263 (Simulation time: 0 hr 26 min 40 sec) 
select_counter is 520
Heartbeat CPU 0 instructions: 55000002 cycles: 82230966 heartbeat IPC: 0.452973 cumulative IPC: 0.589208 (Simulation time: 0 hr 27 min 13 sec) 
select_counter is 508
Heartbeat CPU 0 instructions: 56000000 cycles: 84473780 heartbeat IPC: 0.445868 cumulative IPC: 0.585119 (Simulation time: 0 hr 27 min 47 sec) 
select_counter is 489
Heartbeat CPU 0 instructions: 57000002 cycles: 86659226 heartbeat IPC: 0.457573 cumulative IPC: 0.581669 (Simulation time: 0 hr 28 min 25 sec) 
select_counter is 648
Heartbeat CPU 0 instructions: 58000002 cycles: 88713384 heartbeat IPC: 0.486817 cumulative IPC: 0.579317 (Simulation time: 0 hr 28 min 58 sec) 
select_counter is 1017
Heartbeat CPU 0 instructions: 59000001 cycles: 90462440 heartbeat IPC: 0.571736 cumulative IPC: 0.579161 (Simulation time: 0 hr 29 min 29 sec) 
select_counter is 433
Heartbeat CPU 0 instructions: 60000000 cycles: 92136036 heartbeat IPC: 0.597515 cumulative IPC: 0.579517 (Simulation time: 0 hr 30 min 2 sec) 
select_counter is 861
Heartbeat CPU 0 instructions: 61000000 cycles: 93807249 heartbeat IPC: 0.598368 cumulative IPC: 0.579875 (Simulation time: 0 hr 30 min 32 sec) 
select_counter is 308
Heartbeat CPU 0 instructions: 62000000 cycles: 95472763 heartbeat IPC: 0.600415 cumulative IPC: 0.580257 (Simulation time: 0 hr 31 min 0 sec) 
select_counter is 768
Heartbeat CPU 0 instructions: 63000003 cycles: 97142428 heartbeat IPC: 0.598924 cumulative IPC: 0.580598 (Simulation time: 0 hr 31 min 26 sec) 
select_counter is 130
Heartbeat CPU 0 instructions: 64000000 cycles: 98806552 heartbeat IPC: 0.600915 cumulative IPC: 0.580962 (Simulation time: 0 hr 31 min 54 sec) 
select_counter is 612
Heartbeat CPU 0 instructions: 65000002 cycles: 100482386 heartbeat IPC: 0.596719 cumulative IPC: 0.581241 (Simulation time: 0 hr 32 min 22 sec) 
select_counter is 43
Heartbeat CPU 0 instructions: 66000002 cycles: 102145824 heartbeat IPC: 0.601165 cumulative IPC: 0.581585 (Simulation time: 0 hr 32 min 53 sec) 
select_counter is 586
Heartbeat CPU 0 instructions: 67000001 cycles: 103811752 heartbeat IPC: 0.600265 cumulative IPC: 0.581903 (Simulation time: 0 hr 33 min 25 sec) 
select_counter is 42
Heartbeat CPU 0 instructions: 68000000 cycles: 105480403 heartbeat IPC: 0.599286 cumulative IPC: 0.582194 (Simulation time: 0 hr 33 min 56 sec) 
select_counter is 569
Heartbeat CPU 0 instructions: 69000000 cycles: 107150504 heartbeat IPC: 0.598766 cumulative IPC: 0.582467 (Simulation time: 0 hr 34 min 30 sec) 
select_counter is 42
Heartbeat CPU 0 instructions: 70000000 cycles: 108817717 heartbeat IPC: 0.599803 cumulative IPC: 0.582748 (Simulation time: 0 hr 34 min 59 sec) 
select_counter is 568
Heartbeat CPU 0 instructions: 71000002 cycles: 110484728 heartbeat IPC: 0.599877 cumulative IPC: 0.583021 (Simulation time: 0 hr 35 min 26 sec) 
select_counter is 42
Heartbeat CPU 0 instructions: 72000000 cycles: 112150275 heartbeat IPC: 0.600402 cumulative IPC: 0.583293 (Simulation time: 0 hr 35 min 51 sec) 
select_counter is 446
Heartbeat CPU 0 instructions: 73000003 cycles: 113816374 heartbeat IPC: 0.600206 cumulative IPC: 0.583554 (Simulation time: 0 hr 36 min 18 sec) 
select_counter is 962
Heartbeat CPU 0 instructions: 74000002 cycles: 115487968 heartbeat IPC: 0.598231 cumulative IPC: 0.583778 (Simulation time: 0 hr 36 min 45 sec) 
select_counter is 444
Heartbeat CPU 0 instructions: 75000003 cycles: 117152093 heartbeat IPC: 0.600917 cumulative IPC: 0.584034 (Simulation time: 0 hr 37 min 11 sec) 
select_counter is 1020
Heartbeat CPU 0 instructions: 76000000 cycles: 118821919 heartbeat IPC: 0.598863 cumulative IPC: 0.584253 (Simulation time: 0 hr 37 min 39 sec) 
select_counter is 430
Heartbeat CPU 0 instructions: 77000003 cycles: 120488020 heartbeat IPC: 0.600205 cumulative IPC: 0.584485 (Simulation time: 0 hr 38 min 4 sec) 
select_counter is 926
Heartbeat CPU 0 instructions: 78000000 cycles: 122158047 heartbeat IPC: 0.598791 cumulative IPC: 0.584691 (Simulation time: 0 hr 38 min 31 sec) 
select_counter is 349
Heartbeat CPU 0 instructions: 79000000 cycles: 123825301 heartbeat IPC: 0.599789 cumulative IPC: 0.584904 (Simulation time: 0 hr 39 min 2 sec) 
select_counter is 818
Heartbeat CPU 0 instructions: 80000000 cycles: 125492604 heartbeat IPC: 0.599771 cumulative IPC: 0.585111 (Simulation time: 0 hr 39 min 29 sec) 
select_counter is 400
Heartbeat CPU 0 instructions: 81000000 cycles: 127158142 heartbeat IPC: 0.600407 cumulative IPC: 0.585321 (Simulation time: 0 hr 39 min 57 sec) 
select_counter is 866
Heartbeat CPU 0 instructions: 82000002 cycles: 128819478 heartbeat IPC: 0.601926 cumulative IPC: 0.585546 (Simulation time: 0 hr 40 min 26 sec) 
select_counter is 465
Heartbeat CPU 0 instructions: 83000003 cycles: 130478551 heartbeat IPC: 0.602747 cumulative IPC: 0.585775 (Simulation time: 0 hr 40 min 50 sec) 
select_counter is 996
Heartbeat CPU 0 instructions: 84000000 cycles: 132138036 heartbeat IPC: 0.602595 cumulative IPC: 0.585996 (Simulation time: 0 hr 41 min 16 sec) 
select_counter is 531
Heartbeat CPU 0 instructions: 85000001 cycles: 133803892 heartbeat IPC: 0.600293 cumulative IPC: 0.586182 (Simulation time: 0 hr 41 min 41 sec) 
select_counter is 981
Heartbeat CPU 0 instructions: 86000002 cycles: 135468693 heartbeat IPC: 0.600673 cumulative IPC: 0.586368 (Simulation time: 0 hr 42 min 6 sec) 
select_counter is 415
Heartbeat CPU 0 instructions: 87000003 cycles: 137132982 heartbeat IPC: 0.600858 cumulative IPC: 0.586552 (Simulation time: 0 hr 42 min 31 sec) 
select_counter is 959
Heartbeat CPU 0 instructions: 88000000 cycles: 138798850 heartbeat IPC: 0.600286 cumulative IPC: 0.586724 (Simulation time: 0 hr 42 min 55 sec) 
select_counter is 469
Heartbeat CPU 0 instructions: 89000001 cycles: 140466679 heartbeat IPC: 0.599582 cumulative IPC: 0.586883 (Simulation time: 0 hr 43 min 16 sec) 
select_counter is 962
Heartbeat CPU 0 instructions: 90000002 cycles: 142132155 heartbeat IPC: 0.60043 cumulative IPC: 0.587049 (Simulation time: 0 hr 43 min 38 sec) 
select_counter is 474
Heartbeat CPU 0 instructions: 91000000 cycles: 143791441 heartbeat IPC: 0.602668 cumulative IPC: 0.587236 (Simulation time: 0 hr 43 min 58 sec) 
select_counter is 929
Heartbeat CPU 0 instructions: 92000000 cycles: 145457729 heartbeat IPC: 0.600136 cumulative IPC: 0.58739 (Simulation time: 0 hr 44 min 18 sec) 
select_counter is 434
Heartbeat CPU 0 instructions: 93000003 cycles: 147120724 heartbeat IPC: 0.601327 cumulative IPC: 0.587555 (Simulation time: 0 hr 44 min 37 sec) 
select_counter is 890
Heartbeat CPU 0 instructions: 94000002 cycles: 148786571 heartbeat IPC: 0.600295 cumulative IPC: 0.587703 (Simulation time: 0 hr 44 min 57 sec) 
select_counter is 438
Heartbeat CPU 0 instructions: 95000003 cycles: 150447016 heartbeat IPC: 0.602249 cumulative IPC: 0.58787 (Simulation time: 0 hr 45 min 14 sec) 
select_counter is 1005
Heartbeat CPU 0 instructions: 96000000 cycles: 152108531 heartbeat IPC: 0.601859 cumulative IPC: 0.588029 (Simulation time: 0 hr 45 min 33 sec) 
select_counter is 463
Heartbeat CPU 0 instructions: 97000001 cycles: 153774337 heartbeat IPC: 0.600311 cumulative IPC: 0.588167 (Simulation time: 0 hr 45 min 51 sec) 
select_counter is 975
Heartbeat CPU 0 instructions: 98000002 cycles: 155432741 heartbeat IPC: 0.60299 cumulative IPC: 0.588332 (Simulation time: 0 hr 46 min 8 sec) 
select_counter is 538
Heartbeat CPU 0 instructions: 99000003 cycles: 157097359 heartbeat IPC: 0.600739 cumulative IPC: 0.588468 (Simulation time: 0 hr 46 min 24 sec) 
select_counter is 1007
Heartbeat CPU 0 instructions: 100000000 cycles: 158758613 heartbeat IPC: 0.601953 cumulative IPC: 0.588615 (Simulation time: 0 hr 46 min 40 sec) 
select_counter is 589
Heartbeat CPU 0 instructions: 101000001 cycles: 160421784 heartbeat IPC: 0.601262 cumulative IPC: 0.588751 (Simulation time: 0 hr 46 min 58 sec) 
select_counter is 5
Heartbeat CPU 0 instructions: 102000002 cycles: 162083857 heartbeat IPC: 0.601659 cumulative IPC: 0.588888 (Simulation time: 0 hr 47 min 16 sec) 
select_counter is 594
Heartbeat CPU 0 instructions: 103000000 cycles: 163744053 heartbeat IPC: 0.602337 cumulative IPC: 0.58903 (Simulation time: 0 hr 47 min 31 sec) 
select_counter is 19
Heartbeat CPU 0 instructions: 104000000 cycles: 165400365 heartbeat IPC: 0.603751 cumulative IPC: 0.589182 (Simulation time: 0 hr 47 min 47 sec) 
select_counter is 550
Heartbeat CPU 0 instructions: 105000003 cycles: 167320163 heartbeat IPC: 0.52089 cumulative IPC: 0.58837 (Simulation time: 0 hr 48 min 3 sec) 
select_counter is 101
Heartbeat CPU 0 instructions: 106000003 cycles: 171588504 heartbeat IPC: 0.234283 cumulative IPC: 0.579251 (Simulation time: 0 hr 48 min 29 sec) 
select_counter is 963
Heartbeat CPU 0 instructions: 107000000 cycles: 173374405 heartbeat IPC: 0.55994 cumulative IPC: 0.579045 (Simulation time: 0 hr 48 min 42 sec) 
select_counter is 679
Heartbeat CPU 0 instructions: 108000000 cycles: 175157814 heartbeat IPC: 0.560724 cumulative IPC: 0.578852 (Simulation time: 0 hr 48 min 53 sec) 
select_counter is 243
Heartbeat CPU 0 instructions: 109000001 cycles: 176936411 heartbeat IPC: 0.562241 cumulative IPC: 0.578679 (Simulation time: 0 hr 49 min 4 sec) 
select_counter is 981
Heartbeat CPU 0 instructions: 110000001 cycles: 178711516 heartbeat IPC: 0.563347 cumulative IPC: 0.578522 (Simulation time: 0 hr 49 min 14 sec) 
select_counter is 715
Finished CPU 0 instructions: 100000003 cycles: 172854284 cummulative IPC: 0.578522 (Simulation time: 0 hr 49 min 14 sec) 

ChampSim completed all CPUs

Region of Interest Statistics

CPU 0 cummulative IPC: 0.578522 instructions: 100000003 cycles: 172854284
LLC TOTAL     ACCESS:    3300884  HIT:     278593  MISS:    3022291
LLC LOAD      ACCESS:     972571  HIT:        828  MISS:     971743
LLC RFO       ACCESS:     136847  HIT:        288  MISS:     136559
LLC PREFETCH  ACCESS:    1333377  HIT:      18430  MISS:    1314947
LLC WRITEBACK ACCESS:     858089  HIT:     259047  MISS:     599042
Ship samples: 
6, 53, 66, 120, 130, 173, 220, 237, 276, 302, 326, 381, 406, 430, 454, 509, 529, 551, 607, 621, 642, 700, 709, 746, 796, 808, 862, 895, 902, 959, 975, 1017, 1039, 1077, 1088, 1136, 1180, 1185, 1237, 1274, 1283, 1333, 1352, 1397, 1409, 1467, 1492, 1504, 1543, 1588, 1631, 1637, 1688, 1696, 1729, 1766, 1799, 1836, 1884, 1917, 1941, 1955, 1984, 2046, 
Lime duel samples: 
18, 47, 91, 109, 153, 163, 218, 234, 267, 307, 335, 358, 412, 417, 459, 482, 524, 562, 596, 639, 641, 698, 734, 745, 793, 824, 835, 869, 916, 941, 972, 1020, 1025, 1056, 1102, 1122, 1154, 1196, 1217, 1259, 1298, 1314, 1345, 1396, 1422, 1461, 1489, 1522, 1556, 1583, 1609, 1655, 1675, 1703, 1731, 1778, 1796, 1831, 1883, 1914, 1937, 1966, 1993, 2019, 
Lime samples: 
18, 109, 218, 307, 412, 482, 596, 698, 793, 869, 972, 1056, 1154, 1259, 1345, 1461, 1556, 1655, 1731, 1831, 1937, 
Insertion Distribution: 
	LOAD 0 0 0 0 0 0 151773 328326 
	RFO 0 0 0 0 0 0 25999 35290 
	PREF 0 0 0 0 0 0 26269 627541 
	WRITEBACK 0 0 0 0 0 0 0 215264 
Total Prefetch Downgrades: 1
