
*** ChampSim Multicore Out-of-Order Simulator ***

Warmup Instructions: 10000000
Simulation Instructions: 100000000
Configuration: 2
Number of CPUs: 1
LLC sets: 2048
LLC ways: 16
Off-chip DRAM Channels: 1 Width: 64-bit Data Rate: 1600 MT/s

CPU 0 runs /datasets/cs240c-wi22-a00-public/data/Assignment2-gz/sphinx3_883B.trace.gz
CPU 0 L1D next line prefetcher
CPU 0 L2C IP-based stride prefetcher
Heartbeat CPU 0 instructions: 1000003 cycles: 414356 heartbeat IPC: 2.41339 cumulative IPC: 2.41339 (Simulation time: 0 hr 0 min 24 sec) 
select_counter is 502
Heartbeat CPU 0 instructions: 2000000 cycles: 823899 heartbeat IPC: 2.44174 cumulative IPC: 2.42748 (Simulation time: 0 hr 0 min 51 sec) 
select_counter is 504
Heartbeat CPU 0 instructions: 3000003 cycles: 1298758 heartbeat IPC: 2.10589 cumulative IPC: 2.3099 (Simulation time: 0 hr 1 min 17 sec) 
select_counter is 455
Heartbeat CPU 0 instructions: 4000000 cycles: 1637648 heartbeat IPC: 2.9508 cumulative IPC: 2.44253 (Simulation time: 0 hr 1 min 40 sec) 
select_counter is 457
Heartbeat CPU 0 instructions: 5000000 cycles: 1992310 heartbeat IPC: 2.81959 cumulative IPC: 2.50965 (Simulation time: 0 hr 2 min 6 sec) 
select_counter is 464
Heartbeat CPU 0 instructions: 6000003 cycles: 2406673 heartbeat IPC: 2.41335 cumulative IPC: 2.49307 (Simulation time: 0 hr 2 min 31 sec) 
select_counter is 561
Heartbeat CPU 0 instructions: 7000002 cycles: 2815507 heartbeat IPC: 2.44598 cumulative IPC: 2.48623 (Simulation time: 0 hr 2 min 56 sec) 
select_counter is 621
Heartbeat CPU 0 instructions: 8000000 cycles: 3291557 heartbeat IPC: 2.10062 cumulative IPC: 2.43046 (Simulation time: 0 hr 3 min 18 sec) 
select_counter is 496
Heartbeat CPU 0 instructions: 9000001 cycles: 3630556 heartbeat IPC: 2.94986 cumulative IPC: 2.47896 (Simulation time: 0 hr 3 min 41 sec) 
select_counter is 171
Heartbeat CPU 0 instructions: 10000000 cycles: 3984647 heartbeat IPC: 2.82413 cumulative IPC: 2.50963 (Simulation time: 0 hr 4 min 5 sec) 
select_counter is 132

Warmup complete CPU 0 instructions: 10000004 cycles: 3984648 (Simulation time: 0 hr 4 min 5 sec) 

Heartbeat CPU 0 instructions: 11000002 cycles: 5602331 heartbeat IPC: 0.618169 cumulative IPC: 0.618167 (Simulation time: 0 hr 4 min 35 sec) 
select_counter is 253
Heartbeat CPU 0 instructions: 12000000 cycles: 7108904 heartbeat IPC: 0.663757 cumulative IPC: 0.640151 (Simulation time: 0 hr 5 min 4 sec) 
select_counter is 292
Heartbeat CPU 0 instructions: 13000001 cycles: 8269742 heartbeat IPC: 0.861448 cumulative IPC: 0.700101 (Simulation time: 0 hr 5 min 31 sec) 
select_counter is 200
Heartbeat CPU 0 instructions: 14000002 cycles: 9048119 heartbeat IPC: 1.28473 cumulative IPC: 0.789972 (Simulation time: 0 hr 5 min 58 sec) 
select_counter is 963
Heartbeat CPU 0 instructions: 15000000 cycles: 9975109 heartbeat IPC: 1.07876 cumulative IPC: 0.83466 (Simulation time: 0 hr 6 min 22 sec) 
select_counter is 888
Heartbeat CPU 0 instructions: 16000000 cycles: 11586439 heartbeat IPC: 0.620605 cumulative IPC: 0.789287 (Simulation time: 0 hr 6 min 51 sec) 
select_counter is 973
Heartbeat CPU 0 instructions: 17000000 cycles: 13152742 heartbeat IPC: 0.638446 cumulative IPC: 0.763517 (Simulation time: 0 hr 7 min 19 sec) 
select_counter is 1021
Heartbeat CPU 0 instructions: 18000002 cycles: 14468425 heartbeat IPC: 0.760063 cumulative IPC: 0.763084 (Simulation time: 0 hr 7 min 43 sec) 
select_counter is 973
Heartbeat CPU 0 instructions: 19000003 cycles: 15302426 heartbeat IPC: 1.19904 cumulative IPC: 0.795209 (Simulation time: 0 hr 8 min 8 sec) 
select_counter is 903
Heartbeat CPU 0 instructions: 20000000 cycles: 16129909 heartbeat IPC: 1.20848 cumulative IPC: 0.823366 (Simulation time: 0 hr 8 min 30 sec) 
select_counter is 823
Heartbeat CPU 0 instructions: 21000000 cycles: 17627923 heartbeat IPC: 0.667551 cumulative IPC: 0.806258 (Simulation time: 0 hr 8 min 56 sec) 
select_counter is 800
Heartbeat CPU 0 instructions: 22000002 cycles: 19149515 heartbeat IPC: 0.657208 cumulative IPC: 0.791303 (Simulation time: 0 hr 9 min 24 sec) 
select_counter is 790
Heartbeat CPU 0 instructions: 23000001 cycles: 20614442 heartbeat IPC: 0.682627 cumulative IPC: 0.781729 (Simulation time: 0 hr 9 min 51 sec) 
select_counter is 796
Heartbeat CPU 0 instructions: 24000000 cycles: 21506378 heartbeat IPC: 1.12116 cumulative IPC: 0.799008 (Simulation time: 0 hr 10 min 18 sec) 
select_counter is 744
Heartbeat CPU 0 instructions: 25000001 cycles: 22324031 heartbeat IPC: 1.22301 cumulative IPC: 0.817912 (Simulation time: 0 hr 10 min 46 sec) 
select_counter is 663
Heartbeat CPU 0 instructions: 26000001 cycles: 23517977 heartbeat IPC: 0.837559 cumulative IPC: 0.819113 (Simulation time: 0 hr 11 min 15 sec) 
select_counter is 644
Heartbeat CPU 0 instructions: 27000000 cycles: 25017069 heartbeat IPC: 0.66707 cumulative IPC: 0.808276 (Simulation time: 0 hr 11 min 41 sec) 
select_counter is 630
Heartbeat CPU 0 instructions: 28000000 cycles: 26507494 heartbeat IPC: 0.67095 cumulative IPC: 0.799188 (Simulation time: 0 hr 12 min 6 sec) 
select_counter is 626
Heartbeat CPU 0 instructions: 29000000 cycles: 27509289 heartbeat IPC: 0.998208 cumulative IPC: 0.807664 (Simulation time: 0 hr 12 min 31 sec) 
select_counter is 581
Heartbeat CPU 0 instructions: 30000002 cycles: 28335269 heartbeat IPC: 1.21069 cumulative IPC: 0.821334 (Simulation time: 0 hr 12 min 54 sec) 
select_counter is 520
Heartbeat CPU 0 instructions: 31000003 cycles: 29407432 heartbeat IPC: 0.932695 cumulative IPC: 0.826031 (Simulation time: 0 hr 13 min 19 sec) 
select_counter is 518
Heartbeat CPU 0 instructions: 32000000 cycles: 30900725 heartbeat IPC: 0.669659 cumulative IPC: 0.817355 (Simulation time: 0 hr 13 min 46 sec) 
select_counter is 520
Heartbeat CPU 0 instructions: 33000000 cycles: 32344881 heartbeat IPC: 0.692446 cumulative IPC: 0.810995 (Simulation time: 0 hr 14 min 12 sec) 
select_counter is 529
Heartbeat CPU 0 instructions: 34000000 cycles: 33463227 heartbeat IPC: 0.894178 cumulative IPC: 0.81415 (Simulation time: 0 hr 14 min 41 sec) 
select_counter is 485
Heartbeat CPU 0 instructions: 35000003 cycles: 34310743 heartbeat IPC: 1.17992 cumulative IPC: 0.824373 (Simulation time: 0 hr 15 min 10 sec) 
select_counter is 438
Heartbeat CPU 0 instructions: 36000000 cycles: 35361990 heartbeat IPC: 0.951248 cumulative IPC: 0.828623 (Simulation time: 0 hr 15 min 34 sec) 
select_counter is 448
Heartbeat CPU 0 instructions: 37000001 cycles: 36876184 heartbeat IPC: 0.660418 cumulative IPC: 0.82088 (Simulation time: 0 hr 16 min 2 sec) 
select_counter is 450
Heartbeat CPU 0 instructions: 38000000 cycles: 38323119 heartbeat IPC: 0.691115 cumulative IPC: 0.815412 (Simulation time: 0 hr 16 min 27 sec) 
select_counter is 428
Heartbeat CPU 0 instructions: 39000003 cycles: 39440758 heartbeat IPC: 0.894746 cumulative IPC: 0.817913 (Simulation time: 0 hr 16 min 56 sec) 
select_counter is 395
Heartbeat CPU 0 instructions: 40000000 cycles: 40293238 heartbeat IPC: 1.17304 cumulative IPC: 0.826251 (Simulation time: 0 hr 17 min 21 sec) 
select_counter is 352
Heartbeat CPU 0 instructions: 41000003 cycles: 41347040 heartbeat IPC: 0.948948 cumulative IPC: 0.829711 (Simulation time: 0 hr 17 min 44 sec) 
select_counter is 344
Heartbeat CPU 0 instructions: 42000000 cycles: 42920834 heartbeat IPC: 0.635405 cumulative IPC: 0.821858 (Simulation time: 0 hr 18 min 15 sec) 
select_counter is 349
Heartbeat CPU 0 instructions: 43000003 cycles: 44445752 heartbeat IPC: 0.655775 cumulative IPC: 0.815598 (Simulation time: 0 hr 18 min 41 sec) 
select_counter is 341
Heartbeat CPU 0 instructions: 44000000 cycles: 45515460 heartbeat IPC: 0.934832 cumulative IPC: 0.818669 (Simulation time: 0 hr 19 min 11 sec) 
select_counter is 298
Heartbeat CPU 0 instructions: 45000002 cycles: 46367005 heartbeat IPC: 1.17434 cumulative IPC: 0.825815 (Simulation time: 0 hr 19 min 35 sec) 
select_counter is 242
Heartbeat CPU 0 instructions: 46000001 cycles: 47452593 heartbeat IPC: 0.921159 cumulative IPC: 0.828196 (Simulation time: 0 hr 20 min 1 sec) 
select_counter is 246
Heartbeat CPU 0 instructions: 47000002 cycles: 48991312 heartbeat IPC: 0.649892 cumulative IPC: 0.8221 (Simulation time: 0 hr 20 min 26 sec) 
select_counter is 254
Heartbeat CPU 0 instructions: 48000000 cycles: 50498144 heartbeat IPC: 0.663643 cumulative IPC: 0.816967 (Simulation time: 0 hr 20 min 49 sec) 
select_counter is 251
Heartbeat CPU 0 instructions: 49000001 cycles: 51455825 heartbeat IPC: 1.04419 cumulative IPC: 0.821551 (Simulation time: 0 hr 21 min 16 sec) 
select_counter is 214
Heartbeat CPU 0 instructions: 50000000 cycles: 52306753 heartbeat IPC: 1.17519 cumulative IPC: 0.827778 (Simulation time: 0 hr 21 min 39 sec) 
select_counter is 162
Heartbeat CPU 0 instructions: 51000003 cycles: 53422725 heartbeat IPC: 0.896083 cumulative IPC: 0.82932 (Simulation time: 0 hr 22 min 4 sec) 
select_counter is 172
Heartbeat CPU 0 instructions: 52000000 cycles: 54974906 heartbeat IPC: 0.644253 cumulative IPC: 0.823687 (Simulation time: 0 hr 22 min 29 sec) 
select_counter is 184
Heartbeat CPU 0 instructions: 53000000 cycles: 56692491 heartbeat IPC: 0.582213 cumulative IPC: 0.815818 (Simulation time: 0 hr 22 min 57 sec) 
select_counter is 210
Heartbeat CPU 0 instructions: 54000003 cycles: 57977861 heartbeat IPC: 0.777988 cumulative IPC: 0.814917 (Simulation time: 0 hr 23 min 24 sec) 
select_counter is 209
Heartbeat CPU 0 instructions: 55000003 cycles: 58875612 heartbeat IPC: 1.11389 cumulative IPC: 0.819807 (Simulation time: 0 hr 23 min 48 sec) 
select_counter is 225
Heartbeat CPU 0 instructions: 56000000 cycles: 59769065 heartbeat IPC: 1.11925 cumulative IPC: 0.824603 (Simulation time: 0 hr 24 min 15 sec) 
select_counter is 219
Heartbeat CPU 0 instructions: 57000002 cycles: 60936990 heartbeat IPC: 0.856221 cumulative IPC: 0.825251 (Simulation time: 0 hr 24 min 44 sec) 
select_counter is 256
Heartbeat CPU 0 instructions: 58000001 cycles: 61979054 heartbeat IPC: 0.959633 cumulative IPC: 0.827666 (Simulation time: 0 hr 25 min 15 sec) 
select_counter is 235
Heartbeat CPU 0 instructions: 59000003 cycles: 62856328 heartbeat IPC: 1.1399 cumulative IPC: 0.832319 (Simulation time: 0 hr 25 min 46 sec) 
select_counter is 240
Heartbeat CPU 0 instructions: 60000000 cycles: 63755066 heartbeat IPC: 1.11267 cumulative IPC: 0.836534 (Simulation time: 0 hr 26 min 12 sec) 
select_counter is 251
Heartbeat CPU 0 instructions: 61000001 cycles: 64937281 heartbeat IPC: 0.845871 cumulative IPC: 0.836715 (Simulation time: 0 hr 26 min 39 sec) 
select_counter is 251
Heartbeat CPU 0 instructions: 62000001 cycles: 65801222 heartbeat IPC: 1.15749 cumulative IPC: 0.841198 (Simulation time: 0 hr 27 min 6 sec) 
select_counter is 250
Heartbeat CPU 0 instructions: 63000000 cycles: 66644141 heartbeat IPC: 1.18635 cumulative IPC: 0.845841 (Simulation time: 0 hr 27 min 31 sec) 
select_counter is 250
Heartbeat CPU 0 instructions: 64000000 cycles: 67886566 heartbeat IPC: 0.804878 cumulative IPC: 0.845045 (Simulation time: 0 hr 27 min 58 sec) 
select_counter is 241
Heartbeat CPU 0 instructions: 65000003 cycles: 68763011 heartbeat IPC: 1.14098 cumulative IPC: 0.849049 (Simulation time: 0 hr 28 min 27 sec) 
select_counter is 250
Heartbeat CPU 0 instructions: 66000002 cycles: 69613392 heartbeat IPC: 1.17594 cumulative IPC: 0.853285 (Simulation time: 0 hr 28 min 52 sec) 
select_counter is 243
Heartbeat CPU 0 instructions: 67000000 cycles: 70847666 heartbeat IPC: 0.810191 cumulative IPC: 0.852489 (Simulation time: 0 hr 29 min 18 sec) 
select_counter is 271
Heartbeat CPU 0 instructions: 68000000 cycles: 72458149 heartbeat IPC: 0.620932 cumulative IPC: 0.847043 (Simulation time: 0 hr 29 min 45 sec) 
select_counter is 263
Heartbeat CPU 0 instructions: 69000003 cycles: 73326043 heartbeat IPC: 1.15222 cumulative IPC: 0.850863 (Simulation time: 0 hr 30 min 13 sec) 
select_counter is 266
Heartbeat CPU 0 instructions: 70000000 cycles: 74186779 heartbeat IPC: 1.16179 cumulative IPC: 0.854675 (Simulation time: 0 hr 30 min 36 sec) 
select_counter is 254
Heartbeat CPU 0 instructions: 71000000 cycles: 75339385 heartbeat IPC: 0.867599 cumulative IPC: 0.854884 (Simulation time: 0 hr 31 min 0 sec) 
select_counter is 297
Heartbeat CPU 0 instructions: 72000000 cycles: 76801475 heartbeat IPC: 0.683952 cumulative IPC: 0.851452 (Simulation time: 0 hr 31 min 28 sec) 
select_counter is 312
Heartbeat CPU 0 instructions: 73000000 cycles: 77655694 heartbeat IPC: 1.17066 cumulative IPC: 0.855153 (Simulation time: 0 hr 31 min 55 sec) 
select_counter is 306
Heartbeat CPU 0 instructions: 74000000 cycles: 78512302 heartbeat IPC: 1.1674 cumulative IPC: 0.858742 (Simulation time: 0 hr 32 min 22 sec) 
select_counter is 286
Heartbeat CPU 0 instructions: 75000000 cycles: 79711859 heartbeat IPC: 0.833641 cumulative IPC: 0.858344 (Simulation time: 0 hr 32 min 52 sec) 
select_counter is 338
Heartbeat CPU 0 instructions: 76000000 cycles: 81010568 heartbeat IPC: 0.769995 cumulative IPC: 0.856854 (Simulation time: 0 hr 33 min 18 sec) 
select_counter is 325
Heartbeat CPU 0 instructions: 77000003 cycles: 81877786 heartbeat IPC: 1.15312 cumulative IPC: 0.860153 (Simulation time: 0 hr 33 min 44 sec) 
select_counter is 312
Heartbeat CPU 0 instructions: 78000000 cycles: 82716449 heartbeat IPC: 1.19237 cumulative IPC: 0.863692 (Simulation time: 0 hr 34 min 11 sec) 
select_counter is 301
Heartbeat CPU 0 instructions: 79000001 cycles: 84067212 heartbeat IPC: 0.740323 cumulative IPC: 0.861611 (Simulation time: 0 hr 34 min 39 sec) 
select_counter is 338
Heartbeat CPU 0 instructions: 80000000 cycles: 85226339 heartbeat IPC: 0.862717 cumulative IPC: 0.861627 (Simulation time: 0 hr 35 min 4 sec) 
select_counter is 341
Heartbeat CPU 0 instructions: 81000000 cycles: 86096706 heartbeat IPC: 1.14894 cumulative IPC: 0.864672 (Simulation time: 0 hr 35 min 31 sec) 
select_counter is 324
Heartbeat CPU 0 instructions: 82000000 cycles: 86924666 heartbeat IPC: 1.20779 cumulative IPC: 0.868097 (Simulation time: 0 hr 35 min 56 sec) 
select_counter is 321
Heartbeat CPU 0 instructions: 83000000 cycles: 88390139 heartbeat IPC: 0.682374 cumulative IPC: 0.864873 (Simulation time: 0 hr 36 min 24 sec) 
select_counter is 364
Heartbeat CPU 0 instructions: 84000000 cycles: 89295637 heartbeat IPC: 1.10436 cumulative IPC: 0.867415 (Simulation time: 0 hr 36 min 54 sec) 
select_counter is 356
Heartbeat CPU 0 instructions: 85000001 cycles: 90132247 heartbeat IPC: 1.1953 cumulative IPC: 0.870599 (Simulation time: 0 hr 37 min 23 sec) 
select_counter is 340
Heartbeat CPU 0 instructions: 86000001 cycles: 91180764 heartbeat IPC: 0.953728 cumulative IPC: 0.871598 (Simulation time: 0 hr 37 min 51 sec) 
select_counter is 388
Heartbeat CPU 0 instructions: 87000000 cycles: 92389392 heartbeat IPC: 0.827384 cumulative IPC: 0.870994 (Simulation time: 0 hr 38 min 21 sec) 
select_counter is 382
Heartbeat CPU 0 instructions: 88000000 cycles: 93223068 heartbeat IPC: 1.19951 cumulative IPC: 0.874063 (Simulation time: 0 hr 38 min 45 sec) 
select_counter is 350
Heartbeat CPU 0 instructions: 89000000 cycles: 94038394 heartbeat IPC: 1.2265 cumulative IPC: 0.877254 (Simulation time: 0 hr 39 min 10 sec) 
select_counter is 342
Heartbeat CPU 0 instructions: 90000000 cycles: 95380531 heartbeat IPC: 0.74508 cumulative IPC: 0.875313 (Simulation time: 0 hr 39 min 33 sec) 
select_counter is 371
Heartbeat CPU 0 instructions: 91000003 cycles: 96632144 heartbeat IPC: 0.798971 cumulative IPC: 0.874282 (Simulation time: 0 hr 39 min 56 sec) 
select_counter is 399
Heartbeat CPU 0 instructions: 92000000 cycles: 97591296 heartbeat IPC: 1.04258 cumulative IPC: 0.876006 (Simulation time: 0 hr 40 min 22 sec) 
select_counter is 398
Heartbeat CPU 0 instructions: 93000000 cycles: 98415790 heartbeat IPC: 1.21287 cumulative IPC: 0.878947 (Simulation time: 0 hr 40 min 43 sec) 
select_counter is 372
Heartbeat CPU 0 instructions: 94000002 cycles: 99239489 heartbeat IPC: 1.21404 cumulative IPC: 0.881845 (Simulation time: 0 hr 41 min 5 sec) 
select_counter is 367
Heartbeat CPU 0 instructions: 95000001 cycles: 100651101 heartbeat IPC: 0.708409 cumulative IPC: 0.879312 (Simulation time: 0 hr 41 min 26 sec) 
select_counter is 390
Heartbeat CPU 0 instructions: 96000000 cycles: 101496210 heartbeat IPC: 1.18328 cumulative IPC: 0.881947 (Simulation time: 0 hr 41 min 47 sec) 
select_counter is 361
Heartbeat CPU 0 instructions: 97000002 cycles: 102337475 heartbeat IPC: 1.18869 cumulative IPC: 0.88457 (Simulation time: 0 hr 42 min 8 sec) 
select_counter is 342
Heartbeat CPU 0 instructions: 98000003 cycles: 103542739 heartbeat IPC: 0.829695 cumulative IPC: 0.883906 (Simulation time: 0 hr 42 min 27 sec) 
select_counter is 405
Heartbeat CPU 0 instructions: 99000000 cycles: 104613409 heartbeat IPC: 0.933992 cumulative IPC: 0.884439 (Simulation time: 0 hr 42 min 49 sec) 
select_counter is 373
Heartbeat CPU 0 instructions: 100000000 cycles: 105436642 heartbeat IPC: 1.21472 cumulative IPC: 0.887119 (Simulation time: 0 hr 43 min 7 sec) 
select_counter is 335
Heartbeat CPU 0 instructions: 101000002 cycles: 106266106 heartbeat IPC: 1.2056 cumulative IPC: 0.889702 (Simulation time: 0 hr 43 min 25 sec) 
select_counter is 329
Heartbeat CPU 0 instructions: 102000003 cycles: 107773080 heartbeat IPC: 0.663582 cumulative IPC: 0.886419 (Simulation time: 0 hr 43 min 46 sec) 
select_counter is 367
Heartbeat CPU 0 instructions: 103000001 cycles: 108693322 heartbeat IPC: 1.08667 cumulative IPC: 0.888179 (Simulation time: 0 hr 44 min 5 sec) 
select_counter is 339
Heartbeat CPU 0 instructions: 104000000 cycles: 109521223 heartbeat IPC: 1.20787 cumulative IPC: 0.890686 (Simulation time: 0 hr 44 min 22 sec) 
select_counter is 303
Heartbeat CPU 0 instructions: 105000002 cycles: 110610184 heartbeat IPC: 0.918308 cumulative IPC: 0.890969 (Simulation time: 0 hr 44 min 41 sec) 
select_counter is 327
Heartbeat CPU 0 instructions: 106000003 cycles: 112093174 heartbeat IPC: 0.674314 cumulative IPC: 0.887997 (Simulation time: 0 hr 44 min 58 sec) 
select_counter is 356
Heartbeat CPU 0 instructions: 107000001 cycles: 112924949 heartbeat IPC: 1.20225 cumulative IPC: 0.890396 (Simulation time: 0 hr 45 min 14 sec) 
select_counter is 302
Heartbeat CPU 0 instructions: 108000000 cycles: 113762172 heartbeat IPC: 1.19442 cumulative IPC: 0.892715 (Simulation time: 0 hr 45 min 28 sec) 
select_counter is 282
Heartbeat CPU 0 instructions: 109000001 cycles: 114919494 heartbeat IPC: 0.864065 cumulative IPC: 0.892416 (Simulation time: 0 hr 45 min 42 sec) 
select_counter is 330
Heartbeat CPU 0 instructions: 110000000 cycles: 116307755 heartbeat IPC: 0.720325 cumulative IPC: 0.890289 (Simulation time: 0 hr 45 min 58 sec) 
select_counter is 304
Finished CPU 0 instructions: 100000000 cycles: 112323108 cummulative IPC: 0.890289 (Simulation time: 0 hr 45 min 58 sec) 

ChampSim completed all CPUs

Region of Interest Statistics

CPU 0 cummulative IPC: 0.890289 instructions: 100000000 cycles: 112323108
LLC TOTAL     ACCESS:    1795750  HIT:     694863  MISS:    1100887
LLC LOAD      ACCESS:     314193  HIT:     246243  MISS:      67950
LLC RFO       ACCESS:      99595  HIT:      85926  MISS:      13669
LLC PREFETCH  ACCESS:    1240541  HIT:     225709  MISS:    1014832
LLC WRITEBACK ACCESS:     141421  HIT:     136985  MISS:       4436
Ship samples: 
12, 43, 76, 111, 136, 170, 204, 233, 259, 295, 350, 353, 390, 418, 457, 501, 542, 544, 603, 609, 662, 677, 711, 755, 776, 800, 832, 879, 905, 941, 974, 1000, 1027, 1078, 1112, 1121, 1154, 1200, 1237, 1267, 1309, 1317, 1364, 1381, 1413, 1456, 1492, 1504, 1536, 1592, 1624, 1648, 1687, 1716, 1741, 1784, 1815, 1845, 1883, 1904, 1923, 1953, 1988, 2043, 
Lime duel samples: 
15, 32, 75, 122, 151, 166, 194, 252, 272, 314, 342, 358, 392, 424, 454, 509, 533, 545, 586, 623, 643, 683, 706, 750, 778, 826, 839, 865, 903, 945, 978, 994, 1036, 1064, 1118, 1143, 1166, 1191, 1225, 1251, 1310, 1331, 1374, 1396, 1437, 1458, 1491, 1528, 1560, 1590, 1614, 1638, 1695, 1722, 1754, 1778, 1793, 1846, 1867, 1907, 1933, 1956, 2011, 2041, 
Lime samples: 
15, 122, 194, 314, 392, 509, 586, 683, 778, 865, 978, 1064, 1166, 1251, 1374, 1458, 1560, 1638, 1754, 1846, 1933, 
Insertion Distribution: 
	LOAD 13169 0 0 0 0 0 24108 27116 
	RFO 9040 0 0 0 0 0 5485 874 
	PREF 0 2040 0 0 0 0 51829 816102 
	WRITEBACK 0 0 0 0 0 0 0 3753 
Total Prefetch Downgrades: 15851
