
*** ChampSim Multicore Out-of-Order Simulator ***

Warmup Instructions: 10000000
Simulation Instructions: 100000000
Configuration: 2
Number of CPUs: 1
LLC sets: 2048
LLC ways: 16
Off-chip DRAM Channels: 1 Width: 64-bit Data Rate: 1600 MT/s

CPU 0 runs /datasets/cs240c-wi22-a00-public/data/Assignment2-gz/zeusmp_100B.trace.gz
CPU 0 L1D next line prefetcher
CPU 0 L2C IP-based stride prefetcher
Heartbeat CPU 0 instructions: 1000002 cycles: 462677 heartbeat IPC: 2.16134 cumulative IPC: 2.16134 (Simulation time: 0 hr 0 min 24 sec) 
select_counter is 486
Heartbeat CPU 0 instructions: 2000001 cycles: 925467 heartbeat IPC: 2.16081 cumulative IPC: 2.16107 (Simulation time: 0 hr 0 min 46 sec) 
select_counter is 475
Heartbeat CPU 0 instructions: 3000003 cycles: 1388524 heartbeat IPC: 2.15957 cumulative IPC: 2.16057 (Simulation time: 0 hr 1 min 11 sec) 
select_counter is 480
Heartbeat CPU 0 instructions: 4000000 cycles: 1851244 heartbeat IPC: 2.16113 cumulative IPC: 2.16071 (Simulation time: 0 hr 1 min 33 sec) 
select_counter is 404
Heartbeat CPU 0 instructions: 5000003 cycles: 2314185 heartbeat IPC: 2.16011 cumulative IPC: 2.16059 (Simulation time: 0 hr 1 min 56 sec) 
select_counter is 336
Heartbeat CPU 0 instructions: 6000001 cycles: 2777065 heartbeat IPC: 2.16038 cumulative IPC: 2.16055 (Simulation time: 0 hr 2 min 17 sec) 
select_counter is 268
Heartbeat CPU 0 instructions: 7000001 cycles: 3239748 heartbeat IPC: 2.16131 cumulative IPC: 2.16066 (Simulation time: 0 hr 2 min 39 sec) 
select_counter is 226
Heartbeat CPU 0 instructions: 8000000 cycles: 3702598 heartbeat IPC: 2.16053 cumulative IPC: 2.16065 (Simulation time: 0 hr 3 min 2 sec) 
select_counter is 153
Heartbeat CPU 0 instructions: 9000003 cycles: 4165361 heartbeat IPC: 2.16094 cumulative IPC: 2.16068 (Simulation time: 0 hr 3 min 24 sec) 
select_counter is 238
Heartbeat CPU 0 instructions: 10000001 cycles: 4628687 heartbeat IPC: 2.1583 cumulative IPC: 2.16044 (Simulation time: 0 hr 3 min 49 sec) 
select_counter is 239

Warmup complete CPU 0 instructions: 10000001 cycles: 4628687 (Simulation time: 0 hr 3 min 49 sec) 

Heartbeat CPU 0 instructions: 11000000 cycles: 5302417 heartbeat IPC: 1.48427 cumulative IPC: 1.48427 (Simulation time: 0 hr 4 min 15 sec) 
select_counter is 259
Heartbeat CPU 0 instructions: 12000000 cycles: 5984340 heartbeat IPC: 1.46644 cumulative IPC: 1.4753 (Simulation time: 0 hr 4 min 40 sec) 
select_counter is 204
Heartbeat CPU 0 instructions: 13000001 cycles: 6673657 heartbeat IPC: 1.45071 cumulative IPC: 1.46701 (Simulation time: 0 hr 5 min 7 sec) 
select_counter is 163
Heartbeat CPU 0 instructions: 14000003 cycles: 7345914 heartbeat IPC: 1.48753 cumulative IPC: 1.47209 (Simulation time: 0 hr 5 min 33 sec) 
select_counter is 113
Heartbeat CPU 0 instructions: 15000002 cycles: 8018740 heartbeat IPC: 1.48627 cumulative IPC: 1.4749 (Simulation time: 0 hr 5 min 57 sec) 
select_counter is 89
Heartbeat CPU 0 instructions: 16000000 cycles: 8687303 heartbeat IPC: 1.49574 cumulative IPC: 1.47834 (Simulation time: 0 hr 6 min 23 sec) 
select_counter is 157
Heartbeat CPU 0 instructions: 17000003 cycles: 9466151 heartbeat IPC: 1.28395 cumulative IPC: 1.44704 (Simulation time: 0 hr 6 min 48 sec) 
select_counter is 190
Heartbeat CPU 0 instructions: 18000000 cycles: 10165541 heartbeat IPC: 1.42981 cumulative IPC: 1.44486 (Simulation time: 0 hr 7 min 15 sec) 
select_counter is 190
Heartbeat CPU 0 instructions: 19000002 cycles: 10863614 heartbeat IPC: 1.43252 cumulative IPC: 1.44348 (Simulation time: 0 hr 7 min 41 sec) 
select_counter is 180
Heartbeat CPU 0 instructions: 20000000 cycles: 11558241 heartbeat IPC: 1.43962 cumulative IPC: 1.44309 (Simulation time: 0 hr 8 min 5 sec) 
select_counter is 252
Heartbeat CPU 0 instructions: 21000001 cycles: 12267541 heartbeat IPC: 1.40984 cumulative IPC: 1.44001 (Simulation time: 0 hr 8 min 32 sec) 
select_counter is 264
Heartbeat CPU 0 instructions: 22000001 cycles: 12964387 heartbeat IPC: 1.43504 cumulative IPC: 1.43959 (Simulation time: 0 hr 8 min 57 sec) 
select_counter is 368
Heartbeat CPU 0 instructions: 23000002 cycles: 13680709 heartbeat IPC: 1.39602 cumulative IPC: 1.43614 (Simulation time: 0 hr 9 min 22 sec) 
select_counter is 386
Heartbeat CPU 0 instructions: 24000000 cycles: 14380801 heartbeat IPC: 1.42838 cumulative IPC: 1.43559 (Simulation time: 0 hr 9 min 46 sec) 
select_counter is 444
Heartbeat CPU 0 instructions: 25000001 cycles: 15091106 heartbeat IPC: 1.40785 cumulative IPC: 1.4337 (Simulation time: 0 hr 10 min 13 sec) 
select_counter is 521
Heartbeat CPU 0 instructions: 26000001 cycles: 15784134 heartbeat IPC: 1.44294 cumulative IPC: 1.43428 (Simulation time: 0 hr 10 min 37 sec) 
select_counter is 564
Heartbeat CPU 0 instructions: 27000000 cycles: 16493435 heartbeat IPC: 1.40984 cumulative IPC: 1.43282 (Simulation time: 0 hr 11 min 2 sec) 
select_counter is 625
Heartbeat CPU 0 instructions: 28000000 cycles: 17189213 heartbeat IPC: 1.43724 cumulative IPC: 1.43306 (Simulation time: 0 hr 11 min 27 sec) 
select_counter is 693
Heartbeat CPU 0 instructions: 29000000 cycles: 17880107 heartbeat IPC: 1.4474 cumulative IPC: 1.43381 (Simulation time: 0 hr 11 min 50 sec) 
select_counter is 771
Heartbeat CPU 0 instructions: 30000003 cycles: 18584557 heartbeat IPC: 1.41955 cumulative IPC: 1.43309 (Simulation time: 0 hr 12 min 12 sec) 
select_counter is 807
Heartbeat CPU 0 instructions: 31000000 cycles: 19276483 heartbeat IPC: 1.44524 cumulative IPC: 1.43366 (Simulation time: 0 hr 12 min 36 sec) 
select_counter is 865
Heartbeat CPU 0 instructions: 32000000 cycles: 19983825 heartbeat IPC: 1.41374 cumulative IPC: 1.43275 (Simulation time: 0 hr 13 min 0 sec) 
select_counter is 915
Heartbeat CPU 0 instructions: 33000002 cycles: 20673888 heartbeat IPC: 1.44915 cumulative IPC: 1.43345 (Simulation time: 0 hr 13 min 25 sec) 
select_counter is 985
Heartbeat CPU 0 instructions: 34000002 cycles: 21378217 heartbeat IPC: 1.41979 cumulative IPC: 1.43288 (Simulation time: 0 hr 13 min 51 sec) 
select_counter is 1023
Heartbeat CPU 0 instructions: 35000003 cycles: 22072649 heartbeat IPC: 1.44003 cumulative IPC: 1.43316 (Simulation time: 0 hr 14 min 18 sec) 
select_counter is 1021
Heartbeat CPU 0 instructions: 36000000 cycles: 22780338 heartbeat IPC: 1.41305 cumulative IPC: 1.43238 (Simulation time: 0 hr 14 min 41 sec) 
select_counter is 1021
Heartbeat CPU 0 instructions: 37000001 cycles: 23477400 heartbeat IPC: 1.43459 cumulative IPC: 1.43246 (Simulation time: 0 hr 15 min 6 sec) 
select_counter is 1023
Heartbeat CPU 0 instructions: 38000003 cycles: 24183702 heartbeat IPC: 1.41583 cumulative IPC: 1.43186 (Simulation time: 0 hr 15 min 29 sec) 
select_counter is 1020
Heartbeat CPU 0 instructions: 39000001 cycles: 24880290 heartbeat IPC: 1.43557 cumulative IPC: 1.43199 (Simulation time: 0 hr 15 min 54 sec) 
select_counter is 1020
Heartbeat CPU 0 instructions: 40000000 cycles: 25591928 heartbeat IPC: 1.40521 cumulative IPC: 1.43108 (Simulation time: 0 hr 16 min 19 sec) 
select_counter is 1014
Heartbeat CPU 0 instructions: 41000000 cycles: 26291429 heartbeat IPC: 1.42959 cumulative IPC: 1.43103 (Simulation time: 0 hr 16 min 44 sec) 
select_counter is 1019
Heartbeat CPU 0 instructions: 42000001 cycles: 26987166 heartbeat IPC: 1.43733 cumulative IPC: 1.43122 (Simulation time: 0 hr 17 min 11 sec) 
select_counter is 1022
Heartbeat CPU 0 instructions: 43000003 cycles: 27701226 heartbeat IPC: 1.40045 cumulative IPC: 1.43027 (Simulation time: 0 hr 17 min 36 sec) 
select_counter is 995
Heartbeat CPU 0 instructions: 44000000 cycles: 28399555 heartbeat IPC: 1.43199 cumulative IPC: 1.43032 (Simulation time: 0 hr 18 min 2 sec) 
select_counter is 1021
Heartbeat CPU 0 instructions: 45000001 cycles: 29110184 heartbeat IPC: 1.40721 cumulative IPC: 1.42965 (Simulation time: 0 hr 18 min 27 sec) 
select_counter is 1023
Heartbeat CPU 0 instructions: 46000002 cycles: 29811705 heartbeat IPC: 1.42548 cumulative IPC: 1.42953 (Simulation time: 0 hr 18 min 50 sec) 
select_counter is 1022
Heartbeat CPU 0 instructions: 47000003 cycles: 30523535 heartbeat IPC: 1.40483 cumulative IPC: 1.42886 (Simulation time: 0 hr 19 min 18 sec) 
select_counter is 1023
Heartbeat CPU 0 instructions: 48000000 cycles: 31223733 heartbeat IPC: 1.42816 cumulative IPC: 1.42884 (Simulation time: 0 hr 19 min 45 sec) 
select_counter is 1022
Heartbeat CPU 0 instructions: 49000001 cycles: 31937728 heartbeat IPC: 1.40057 cumulative IPC: 1.4281 (Simulation time: 0 hr 20 min 11 sec) 
select_counter is 1019
Heartbeat CPU 0 instructions: 50000001 cycles: 32640989 heartbeat IPC: 1.42195 cumulative IPC: 1.42794 (Simulation time: 0 hr 20 min 33 sec) 
select_counter is 1022
Heartbeat CPU 0 instructions: 51000002 cycles: 33356111 heartbeat IPC: 1.39836 cumulative IPC: 1.42721 (Simulation time: 0 hr 20 min 56 sec) 
select_counter is 1014
Heartbeat CPU 0 instructions: 52000000 cycles: 34056522 heartbeat IPC: 1.42773 cumulative IPC: 1.42722 (Simulation time: 0 hr 21 min 21 sec) 
select_counter is 1016
Heartbeat CPU 0 instructions: 53000001 cycles: 34771577 heartbeat IPC: 1.3985 cumulative IPC: 1.42654 (Simulation time: 0 hr 21 min 49 sec) 
select_counter is 1023
Heartbeat CPU 0 instructions: 54000003 cycles: 35476840 heartbeat IPC: 1.41791 cumulative IPC: 1.42634 (Simulation time: 0 hr 22 min 14 sec) 
select_counter is 1017
Heartbeat CPU 0 instructions: 55000003 cycles: 36184279 heartbeat IPC: 1.41355 cumulative IPC: 1.42605 (Simulation time: 0 hr 22 min 39 sec) 
select_counter is 1021
Heartbeat CPU 0 instructions: 56000000 cycles: 36894322 heartbeat IPC: 1.40836 cumulative IPC: 1.42567 (Simulation time: 0 hr 23 min 5 sec) 
select_counter is 993
Heartbeat CPU 0 instructions: 57000003 cycles: 37594670 heartbeat IPC: 1.42787 cumulative IPC: 1.42571 (Simulation time: 0 hr 23 min 29 sec) 
select_counter is 1021
Heartbeat CPU 0 instructions: 58000003 cycles: 38307269 heartbeat IPC: 1.40331 cumulative IPC: 1.42524 (Simulation time: 0 hr 23 min 54 sec) 
select_counter is 1018
Heartbeat CPU 0 instructions: 59000003 cycles: 39010054 heartbeat IPC: 1.42291 cumulative IPC: 1.42519 (Simulation time: 0 hr 24 min 19 sec) 
select_counter is 1023
Heartbeat CPU 0 instructions: 60000000 cycles: 39727869 heartbeat IPC: 1.39311 cumulative IPC: 1.42453 (Simulation time: 0 hr 24 min 45 sec) 
select_counter is 1011
Heartbeat CPU 0 instructions: 61000000 cycles: 40430971 heartbeat IPC: 1.42227 cumulative IPC: 1.42449 (Simulation time: 0 hr 25 min 10 sec) 
select_counter is 1022
Heartbeat CPU 0 instructions: 62000001 cycles: 41148809 heartbeat IPC: 1.39307 cumulative IPC: 1.42387 (Simulation time: 0 hr 25 min 34 sec) 
select_counter is 1023
Heartbeat CPU 0 instructions: 63000001 cycles: 41851550 heartbeat IPC: 1.423 cumulative IPC: 1.42386 (Simulation time: 0 hr 25 min 59 sec) 
select_counter is 1019
Heartbeat CPU 0 instructions: 64000000 cycles: 42567958 heartbeat IPC: 1.39585 cumulative IPC: 1.42333 (Simulation time: 0 hr 26 min 23 sec) 
select_counter is 1023
Heartbeat CPU 0 instructions: 65000003 cycles: 43269084 heartbeat IPC: 1.42628 cumulative IPC: 1.42338 (Simulation time: 0 hr 26 min 49 sec) 
select_counter is 1022
Heartbeat CPU 0 instructions: 66000003 cycles: 43984437 heartbeat IPC: 1.39791 cumulative IPC: 1.42292 (Simulation time: 0 hr 27 min 16 sec) 
select_counter is 1016
Heartbeat CPU 0 instructions: 67000000 cycles: 44687626 heartbeat IPC: 1.42209 cumulative IPC: 1.4229 (Simulation time: 0 hr 27 min 39 sec) 
select_counter is 1018
Heartbeat CPU 0 instructions: 68000000 cycles: 45399069 heartbeat IPC: 1.40559 cumulative IPC: 1.4226 (Simulation time: 0 hr 28 min 5 sec) 
select_counter is 1010
Heartbeat CPU 0 instructions: 69000000 cycles: 46104569 heartbeat IPC: 1.41743 cumulative IPC: 1.42251 (Simulation time: 0 hr 28 min 30 sec) 
select_counter is 1023
Heartbeat CPU 0 instructions: 70000003 cycles: 46802432 heartbeat IPC: 1.43295 cumulative IPC: 1.42269 (Simulation time: 0 hr 28 min 54 sec) 
select_counter is 1022
Heartbeat CPU 0 instructions: 71000003 cycles: 47515725 heartbeat IPC: 1.40195 cumulative IPC: 1.42234 (Simulation time: 0 hr 29 min 20 sec) 
select_counter is 1013
Heartbeat CPU 0 instructions: 72000000 cycles: 48216817 heartbeat IPC: 1.42634 cumulative IPC: 1.42241 (Simulation time: 0 hr 29 min 46 sec) 
select_counter is 1023
Heartbeat CPU 0 instructions: 73000002 cycles: 48933753 heartbeat IPC: 1.39483 cumulative IPC: 1.42196 (Simulation time: 0 hr 30 min 16 sec) 
select_counter is 1016
Heartbeat CPU 0 instructions: 74000003 cycles: 49632999 heartbeat IPC: 1.43011 cumulative IPC: 1.42209 (Simulation time: 0 hr 30 min 47 sec) 
select_counter is 1023
Heartbeat CPU 0 instructions: 75000003 cycles: 50345411 heartbeat IPC: 1.40368 cumulative IPC: 1.4218 (Simulation time: 0 hr 31 min 16 sec) 
select_counter is 1018
Heartbeat CPU 0 instructions: 76000000 cycles: 51047759 heartbeat IPC: 1.42379 cumulative IPC: 1.42183 (Simulation time: 0 hr 31 min 39 sec) 
select_counter is 1023
Heartbeat CPU 0 instructions: 77000003 cycles: 51768073 heartbeat IPC: 1.38829 cumulative IPC: 1.42132 (Simulation time: 0 hr 32 min 2 sec) 
select_counter is 1019
Heartbeat CPU 0 instructions: 78000002 cycles: 52470542 heartbeat IPC: 1.42355 cumulative IPC: 1.42135 (Simulation time: 0 hr 32 min 28 sec) 
select_counter is 1012
Heartbeat CPU 0 instructions: 79000000 cycles: 53183720 heartbeat IPC: 1.40217 cumulative IPC: 1.42107 (Simulation time: 0 hr 32 min 52 sec) 
select_counter is 1022
Heartbeat CPU 0 instructions: 80000000 cycles: 53885377 heartbeat IPC: 1.4252 cumulative IPC: 1.42113 (Simulation time: 0 hr 33 min 15 sec) 
select_counter is 1023
Heartbeat CPU 0 instructions: 81000003 cycles: 54600647 heartbeat IPC: 1.39808 cumulative IPC: 1.4208 (Simulation time: 0 hr 33 min 39 sec) 
select_counter is 1020
Heartbeat CPU 0 instructions: 82000000 cycles: 55307739 heartbeat IPC: 1.41424 cumulative IPC: 1.42071 (Simulation time: 0 hr 34 min 4 sec) 
select_counter is 1023
Heartbeat CPU 0 instructions: 83000002 cycles: 56007136 heartbeat IPC: 1.42981 cumulative IPC: 1.42083 (Simulation time: 0 hr 34 min 28 sec) 
select_counter is 1020
Heartbeat CPU 0 instructions: 84000000 cycles: 56719843 heartbeat IPC: 1.4031 cumulative IPC: 1.42059 (Simulation time: 0 hr 34 min 52 sec) 
select_counter is 1018
Heartbeat CPU 0 instructions: 85000001 cycles: 57418494 heartbeat IPC: 1.43133 cumulative IPC: 1.42073 (Simulation time: 0 hr 35 min 15 sec) 
select_counter is 1023
Heartbeat CPU 0 instructions: 86000001 cycles: 58135631 heartbeat IPC: 1.39443 cumulative IPC: 1.42038 (Simulation time: 0 hr 35 min 43 sec) 
select_counter is 1009
Heartbeat CPU 0 instructions: 87000001 cycles: 58840372 heartbeat IPC: 1.41896 cumulative IPC: 1.42036 (Simulation time: 0 hr 36 min 8 sec) 
select_counter is 1015
Heartbeat CPU 0 instructions: 88000000 cycles: 59552915 heartbeat IPC: 1.40342 cumulative IPC: 1.42014 (Simulation time: 0 hr 36 min 31 sec) 
select_counter is 1023
Heartbeat CPU 0 instructions: 89000003 cycles: 60253669 heartbeat IPC: 1.42704 cumulative IPC: 1.42023 (Simulation time: 0 hr 36 min 55 sec) 
select_counter is 1022
Heartbeat CPU 0 instructions: 90000001 cycles: 60968017 heartbeat IPC: 1.39988 cumulative IPC: 1.41997 (Simulation time: 0 hr 37 min 16 sec) 
select_counter is 1023
Heartbeat CPU 0 instructions: 91000001 cycles: 61674763 heartbeat IPC: 1.41494 cumulative IPC: 1.4199 (Simulation time: 0 hr 37 min 37 sec) 
select_counter is 1017
Heartbeat CPU 0 instructions: 92000000 cycles: 62391577 heartbeat IPC: 1.39506 cumulative IPC: 1.4196 (Simulation time: 0 hr 37 min 56 sec) 
select_counter is 1006
Heartbeat CPU 0 instructions: 93000001 cycles: 63094652 heartbeat IPC: 1.42232 cumulative IPC: 1.41963 (Simulation time: 0 hr 38 min 15 sec) 
select_counter is 1023
Heartbeat CPU 0 instructions: 94000003 cycles: 63811102 heartbeat IPC: 1.39577 cumulative IPC: 1.41934 (Simulation time: 0 hr 38 min 34 sec) 
select_counter is 1021
Heartbeat CPU 0 instructions: 95000003 cycles: 64517507 heartbeat IPC: 1.41562 cumulative IPC: 1.4193 (Simulation time: 0 hr 38 min 53 sec) 
select_counter is 1023
Heartbeat CPU 0 instructions: 96000000 cycles: 65223437 heartbeat IPC: 1.41657 cumulative IPC: 1.41926 (Simulation time: 0 hr 39 min 12 sec) 
select_counter is 1023
Heartbeat CPU 0 instructions: 97000000 cycles: 65933263 heartbeat IPC: 1.4088 cumulative IPC: 1.41914 (Simulation time: 0 hr 39 min 31 sec) 
select_counter is 1014
Heartbeat CPU 0 instructions: 98000001 cycles: 66627892 heartbeat IPC: 1.43962 cumulative IPC: 1.41937 (Simulation time: 0 hr 39 min 50 sec) 
select_counter is 1018
Heartbeat CPU 0 instructions: 99000001 cycles: 67344601 heartbeat IPC: 1.39527 cumulative IPC: 1.4191 (Simulation time: 0 hr 40 min 8 sec) 
select_counter is 1021
Heartbeat CPU 0 instructions: 100000000 cycles: 68050865 heartbeat IPC: 1.4159 cumulative IPC: 1.41906 (Simulation time: 0 hr 40 min 32 sec) 
select_counter is 937
Heartbeat CPU 0 instructions: 101000002 cycles: 68772638 heartbeat IPC: 1.38548 cumulative IPC: 1.41868 (Simulation time: 0 hr 40 min 58 sec) 
select_counter is 929
Heartbeat CPU 0 instructions: 102000003 cycles: 69483952 heartbeat IPC: 1.40585 cumulative IPC: 1.41854 (Simulation time: 0 hr 41 min 19 sec) 
select_counter is 909
Heartbeat CPU 0 instructions: 103000001 cycles: 70210835 heartbeat IPC: 1.37573 cumulative IPC: 1.41807 (Simulation time: 0 hr 41 min 41 sec) 
select_counter is 940
Heartbeat CPU 0 instructions: 104000000 cycles: 70922683 heartbeat IPC: 1.40479 cumulative IPC: 1.41793 (Simulation time: 0 hr 42 min 3 sec) 
select_counter is 929
Heartbeat CPU 0 instructions: 105000003 cycles: 71643875 heartbeat IPC: 1.3866 cumulative IPC: 1.41759 (Simulation time: 0 hr 42 min 25 sec) 
select_counter is 913
Heartbeat CPU 0 instructions: 106000002 cycles: 72359711 heartbeat IPC: 1.39697 cumulative IPC: 1.41737 (Simulation time: 0 hr 42 min 46 sec) 
select_counter is 951
Heartbeat CPU 0 instructions: 107000000 cycles: 73077083 heartbeat IPC: 1.39397 cumulative IPC: 1.41713 (Simulation time: 0 hr 43 min 6 sec) 
select_counter is 993
Heartbeat CPU 0 instructions: 108000000 cycles: 73780048 heartbeat IPC: 1.42255 cumulative IPC: 1.41718 (Simulation time: 0 hr 43 min 26 sec) 
select_counter is 972
Heartbeat CPU 0 instructions: 109000002 cycles: 74481854 heartbeat IPC: 1.4249 cumulative IPC: 1.41726 (Simulation time: 0 hr 43 min 47 sec) 
select_counter is 983
Heartbeat CPU 0 instructions: 110000000 cycles: 75194262 heartbeat IPC: 1.40369 cumulative IPC: 1.41712 (Simulation time: 0 hr 44 min 5 sec) 
select_counter is 988
Finished CPU 0 instructions: 100000003 cycles: 70565576 cummulative IPC: 1.41712 (Simulation time: 0 hr 44 min 5 sec) 

ChampSim completed all CPUs

Region of Interest Statistics

CPU 0 cummulative IPC: 1.41712 instructions: 100000003 cycles: 70565576
LLC TOTAL     ACCESS:     831035  HIT:     185228  MISS:     645807
LLC LOAD      ACCESS:      25993  HIT:      12335  MISS:      13658
LLC RFO       ACCESS:     201248  HIT:       7829  MISS:     193419
LLC PREFETCH  ACCESS:     401084  HIT:       8669  MISS:     392415
LLC WRITEBACK ACCESS:     202710  HIT:     156395  MISS:      46315
Ship samples: 
26, 57, 81, 97, 144, 160, 213, 241, 263, 293, 349, 355, 407, 434, 464, 488, 521, 549, 597, 615, 666, 684, 725, 754, 797, 813, 842, 875, 900, 943, 973, 1001, 1036, 1069, 1096, 1144, 1176, 1196, 1243, 1260, 1311, 1330, 1355, 1386, 1435, 1444, 1488, 1535, 1563, 1598, 1601, 1637, 1690, 1702, 1744, 1774, 1805, 1848, 1886, 1895, 1947, 1953, 2008, 2024, 
Lime duel samples: 
29, 36, 76, 109, 148, 161, 220, 240, 267, 298, 334, 361, 401, 435, 462, 496, 532, 564, 598, 633, 662, 675, 714, 759, 799, 800, 858, 881, 897, 957, 980, 1015, 1047, 1070, 1089, 1140, 1154, 1188, 1229, 1278, 1304, 1338, 1353, 1405, 1423, 1465, 1480, 1517, 1564, 1581, 1603, 1654, 1689, 1714, 1749, 1779, 1807, 1824, 1880, 1890, 1945, 1963, 1996, 2017, 
Lime samples: 
29, 109, 220, 298, 401, 496, 598, 675, 799, 881, 980, 1070, 1154, 1278, 1353, 1465, 1564, 1654, 1749, 1824, 1945, 
Insertion Distribution: 
	LOAD 431 0 0 0 0 0 3063 1359 
	RFO 1150 0 0 0 0 0 10900 28109 
	PREF 0 10062 0 0 0 0 26369 53490 
	WRITEBACK 0 0 0 0 0 0 0 24226 
Total Prefetch Downgrades: 4718
