
*** ChampSim Multicore Out-of-Order Simulator ***

Warmup Instructions: 10000000
Simulation Instructions: 100000000
Configuration: 2
Number of CPUs: 1
LLC sets: 2048
LLC ways: 16
Off-chip DRAM Channels: 1 Width: 64-bit Data Rate: 1600 MT/s

CPU 0 runs /datasets/cs240c-wi22-a00-public/data/Assignment2-gz/calculix_2655B.trace.gz
CPU 0 L1D next line prefetcher
CPU 0 L2C IP-based stride prefetcher
Heartbeat CPU 0 instructions: 1000003 cycles: 392380 heartbeat IPC: 2.54856 cumulative IPC: 2.54856 (Simulation time: 0 hr 0 min 17 sec) 
select_counter is 341
Heartbeat CPU 0 instructions: 2000001 cycles: 785149 heartbeat IPC: 2.54602 cumulative IPC: 2.54729 (Simulation time: 0 hr 0 min 31 sec) 
select_counter is 77
Heartbeat CPU 0 instructions: 3000002 cycles: 1177695 heartbeat IPC: 2.54747 cumulative IPC: 2.54735 (Simulation time: 0 hr 0 min 49 sec) 
select_counter is 817
Heartbeat CPU 0 instructions: 4000000 cycles: 1569458 heartbeat IPC: 2.55256 cumulative IPC: 2.54865 (Simulation time: 0 hr 1 min 5 sec) 
select_counter is 649
Heartbeat CPU 0 instructions: 5000003 cycles: 1961670 heartbeat IPC: 2.54965 cumulative IPC: 2.54885 (Simulation time: 0 hr 1 min 21 sec) 
select_counter is 371
Heartbeat CPU 0 instructions: 6000003 cycles: 2353783 heartbeat IPC: 2.55029 cumulative IPC: 2.54909 (Simulation time: 0 hr 1 min 37 sec) 
select_counter is 84
Heartbeat CPU 0 instructions: 7000002 cycles: 2745936 heartbeat IPC: 2.55002 cumulative IPC: 2.54922 (Simulation time: 0 hr 1 min 54 sec) 
select_counter is 826
Heartbeat CPU 0 instructions: 8000000 cycles: 3137913 heartbeat IPC: 2.55117 cumulative IPC: 2.54947 (Simulation time: 0 hr 2 min 11 sec) 
select_counter is 561
Heartbeat CPU 0 instructions: 9000001 cycles: 3530086 heartbeat IPC: 2.5499 cumulative IPC: 2.54951 (Simulation time: 0 hr 2 min 29 sec) 
select_counter is 295
Heartbeat CPU 0 instructions: 10000000 cycles: 3921562 heartbeat IPC: 2.55443 cumulative IPC: 2.55 (Simulation time: 0 hr 2 min 46 sec) 
select_counter is 116

Warmup complete CPU 0 instructions: 10000004 cycles: 3921563 (Simulation time: 0 hr 2 min 46 sec) 

Heartbeat CPU 0 instructions: 11000001 cycles: 4386336 heartbeat IPC: 2.15159 cumulative IPC: 2.15158 (Simulation time: 0 hr 3 min 6 sec) 
select_counter is 814
Heartbeat CPU 0 instructions: 12000000 cycles: 4847972 heartbeat IPC: 2.16621 cumulative IPC: 2.15887 (Simulation time: 0 hr 3 min 25 sec) 
select_counter is 487
Heartbeat CPU 0 instructions: 13000000 cycles: 5312080 heartbeat IPC: 2.15467 cumulative IPC: 2.15747 (Simulation time: 0 hr 3 min 44 sec) 
select_counter is 179
Heartbeat CPU 0 instructions: 14000002 cycles: 5770840 heartbeat IPC: 2.17979 cumulative IPC: 2.16301 (Simulation time: 0 hr 4 min 5 sec) 
select_counter is 911
Heartbeat CPU 0 instructions: 15000001 cycles: 6226383 heartbeat IPC: 2.19518 cumulative IPC: 2.16937 (Simulation time: 0 hr 4 min 26 sec) 
select_counter is 618
Heartbeat CPU 0 instructions: 16000000 cycles: 6886525 heartbeat IPC: 1.51482 cumulative IPC: 2.02363 (Simulation time: 0 hr 4 min 50 sec) 
select_counter is 453
Heartbeat CPU 0 instructions: 17000000 cycles: 7419371 heartbeat IPC: 1.87671 cumulative IPC: 2.00125 (Simulation time: 0 hr 5 min 9 sec) 
select_counter is 174
Heartbeat CPU 0 instructions: 18000000 cycles: 7888758 heartbeat IPC: 2.13044 cumulative IPC: 2.01654 (Simulation time: 0 hr 5 min 28 sec) 
select_counter is 925
Heartbeat CPU 0 instructions: 19000000 cycles: 8355450 heartbeat IPC: 2.14274 cumulative IPC: 2.02982 (Simulation time: 0 hr 5 min 47 sec) 
select_counter is 652
Heartbeat CPU 0 instructions: 20000000 cycles: 8824862 heartbeat IPC: 2.13032 cumulative IPC: 2.03944 (Simulation time: 0 hr 6 min 4 sec) 
select_counter is 379
Heartbeat CPU 0 instructions: 21000002 cycles: 9285273 heartbeat IPC: 2.17198 cumulative IPC: 2.05082 (Simulation time: 0 hr 6 min 24 sec) 
select_counter is 81
Heartbeat CPU 0 instructions: 22000001 cycles: 9894771 heartbeat IPC: 1.64069 cumulative IPC: 2.00897 (Simulation time: 0 hr 6 min 43 sec) 
select_counter is 951
Heartbeat CPU 0 instructions: 23000000 cycles: 10370261 heartbeat IPC: 2.10309 cumulative IPC: 2.01591 (Simulation time: 0 hr 7 min 3 sec) 
select_counter is 656
Heartbeat CPU 0 instructions: 24000000 cycles: 10846563 heartbeat IPC: 2.09951 cumulative IPC: 2.02166 (Simulation time: 0 hr 7 min 23 sec) 
select_counter is 379
Heartbeat CPU 0 instructions: 25000003 cycles: 11306570 heartbeat IPC: 2.17389 cumulative IPC: 2.03114 (Simulation time: 0 hr 7 min 41 sec) 
select_counter is 78
Heartbeat CPU 0 instructions: 26000003 cycles: 11765167 heartbeat IPC: 2.18056 cumulative IPC: 2.03988 (Simulation time: 0 hr 8 min 2 sec) 
select_counter is 825
Heartbeat CPU 0 instructions: 27000000 cycles: 12250952 heartbeat IPC: 2.05852 cumulative IPC: 2.04097 (Simulation time: 0 hr 8 min 28 sec) 
select_counter is 557
Heartbeat CPU 0 instructions: 28000000 cycles: 12922615 heartbeat IPC: 1.48884 cumulative IPC: 1.99977 (Simulation time: 0 hr 8 min 50 sec) 
select_counter is 394
Heartbeat CPU 0 instructions: 29000003 cycles: 13415659 heartbeat IPC: 2.02822 cumulative IPC: 2.00124 (Simulation time: 0 hr 9 min 10 sec) 
select_counter is 130
Heartbeat CPU 0 instructions: 30000003 cycles: 13876790 heartbeat IPC: 2.16858 cumulative IPC: 2.00899 (Simulation time: 0 hr 9 min 28 sec) 
select_counter is 860
Heartbeat CPU 0 instructions: 31000002 cycles: 14343756 heartbeat IPC: 2.14148 cumulative IPC: 2.01493 (Simulation time: 0 hr 9 min 49 sec) 
select_counter is 581
Heartbeat CPU 0 instructions: 32000000 cycles: 14805857 heartbeat IPC: 2.16402 cumulative IPC: 2.02126 (Simulation time: 0 hr 10 min 10 sec) 
select_counter is 328
Heartbeat CPU 0 instructions: 33000003 cycles: 15327620 heartbeat IPC: 1.91658 cumulative IPC: 2.01647 (Simulation time: 0 hr 10 min 29 sec) 
select_counter is 88
Heartbeat CPU 0 instructions: 34000002 cycles: 15911005 heartbeat IPC: 1.71413 cumulative IPC: 2.00176 (Simulation time: 0 hr 10 min 50 sec) 
select_counter is 906
Heartbeat CPU 0 instructions: 35000001 cycles: 16396266 heartbeat IPC: 2.06074 cumulative IPC: 2.00406 (Simulation time: 0 hr 11 min 8 sec) 
select_counter is 583
Heartbeat CPU 0 instructions: 36000000 cycles: 16885679 heartbeat IPC: 2.04326 cumulative IPC: 2.00554 (Simulation time: 0 hr 11 min 29 sec) 
select_counter is 263
Heartbeat CPU 0 instructions: 37000002 cycles: 17353136 heartbeat IPC: 2.13924 cumulative IPC: 2.01019 (Simulation time: 0 hr 11 min 46 sec) 
select_counter is 975
Heartbeat CPU 0 instructions: 38000002 cycles: 17815410 heartbeat IPC: 2.16322 cumulative IPC: 2.01528 (Simulation time: 0 hr 12 min 5 sec) 
select_counter is 669
Heartbeat CPU 0 instructions: 39000002 cycles: 18413203 heartbeat IPC: 1.67282 cumulative IPC: 2.00115 (Simulation time: 0 hr 12 min 26 sec) 
select_counter is 431
Heartbeat CPU 0 instructions: 40000000 cycles: 18898053 heartbeat IPC: 2.06249 cumulative IPC: 2.00314 (Simulation time: 0 hr 12 min 46 sec) 
select_counter is 363
Heartbeat CPU 0 instructions: 41000003 cycles: 19390342 heartbeat IPC: 2.03133 cumulative IPC: 2.00404 (Simulation time: 0 hr 13 min 7 sec) 
select_counter is 344
Heartbeat CPU 0 instructions: 42000001 cycles: 19904750 heartbeat IPC: 1.94398 cumulative IPC: 2.0021 (Simulation time: 0 hr 13 min 29 sec) 
select_counter is 284
Heartbeat CPU 0 instructions: 43000001 cycles: 20433316 heartbeat IPC: 1.89191 cumulative IPC: 1.99858 (Simulation time: 0 hr 13 min 49 sec) 
select_counter is 264
Heartbeat CPU 0 instructions: 44000000 cycles: 21152458 heartbeat IPC: 1.39054 cumulative IPC: 1.9732 (Simulation time: 0 hr 14 min 12 sec) 
select_counter is 247
Heartbeat CPU 0 instructions: 45000002 cycles: 21612109 heartbeat IPC: 2.17557 cumulative IPC: 1.97846 (Simulation time: 0 hr 14 min 33 sec) 
select_counter is 216
Heartbeat CPU 0 instructions: 46000003 cycles: 22129274 heartbeat IPC: 1.93362 cumulative IPC: 1.97718 (Simulation time: 0 hr 14 min 51 sec) 
select_counter is 179
Heartbeat CPU 0 instructions: 47000000 cycles: 22624964 heartbeat IPC: 2.01738 cumulative IPC: 1.97825 (Simulation time: 0 hr 15 min 11 sec) 
select_counter is 88
Heartbeat CPU 0 instructions: 48000000 cycles: 23160932 heartbeat IPC: 1.86578 cumulative IPC: 1.97512 (Simulation time: 0 hr 15 min 32 sec) 
select_counter is 20
Heartbeat CPU 0 instructions: 49000000 cycles: 23606081 heartbeat IPC: 2.24644 cumulative IPC: 1.98125 (Simulation time: 0 hr 15 min 53 sec) 
select_counter is 7
Heartbeat CPU 0 instructions: 50000002 cycles: 24086844 heartbeat IPC: 2.08003 cumulative IPC: 1.98361 (Simulation time: 0 hr 16 min 16 sec) 
select_counter is 1007
Heartbeat CPU 0 instructions: 51000001 cycles: 24564378 heartbeat IPC: 2.09409 cumulative IPC: 1.98616 (Simulation time: 0 hr 16 min 35 sec) 
select_counter is 984
Heartbeat CPU 0 instructions: 52000000 cycles: 25000006 heartbeat IPC: 2.29553 cumulative IPC: 1.99256 (Simulation time: 0 hr 16 min 57 sec) 
select_counter is 968
Heartbeat CPU 0 instructions: 53000002 cycles: 25529744 heartbeat IPC: 1.88773 cumulative IPC: 1.98999 (Simulation time: 0 hr 17 min 20 sec) 
select_counter is 962
Heartbeat CPU 0 instructions: 54000002 cycles: 26325326 heartbeat IPC: 1.25694 cumulative IPC: 1.96396 (Simulation time: 0 hr 17 min 46 sec) 
select_counter is 943
Heartbeat CPU 0 instructions: 55000002 cycles: 26860021 heartbeat IPC: 1.87023 cumulative IPC: 1.96177 (Simulation time: 0 hr 18 min 7 sec) 
select_counter is 900
Heartbeat CPU 0 instructions: 56000000 cycles: 27344724 heartbeat IPC: 2.06311 cumulative IPC: 1.96387 (Simulation time: 0 hr 18 min 27 sec) 
select_counter is 858
Heartbeat CPU 0 instructions: 57000000 cycles: 27885467 heartbeat IPC: 1.84931 cumulative IPC: 1.96128 (Simulation time: 0 hr 18 min 45 sec) 
select_counter is 819
Heartbeat CPU 0 instructions: 58000003 cycles: 28336095 heartbeat IPC: 2.21913 cumulative IPC: 1.96604 (Simulation time: 0 hr 19 min 6 sec) 
select_counter is 798
Heartbeat CPU 0 instructions: 59000001 cycles: 28869558 heartbeat IPC: 1.87454 cumulative IPC: 1.96409 (Simulation time: 0 hr 19 min 29 sec) 
select_counter is 765
Heartbeat CPU 0 instructions: 60000000 cycles: 29351277 heartbeat IPC: 2.0759 cumulative IPC: 1.9662 (Simulation time: 0 hr 19 min 47 sec) 
select_counter is 732
Heartbeat CPU 0 instructions: 61000002 cycles: 29865425 heartbeat IPC: 1.94497 cumulative IPC: 1.96578 (Simulation time: 0 hr 20 min 4 sec) 
select_counter is 689
Heartbeat CPU 0 instructions: 62000003 cycles: 30388306 heartbeat IPC: 1.91248 cumulative IPC: 1.96473 (Simulation time: 0 hr 20 min 25 sec) 
select_counter is 659
Heartbeat CPU 0 instructions: 63000003 cycles: 31070705 heartbeat IPC: 1.46542 cumulative IPC: 1.95218 (Simulation time: 0 hr 20 min 50 sec) 
select_counter is 638
Heartbeat CPU 0 instructions: 64000000 cycles: 31562370 heartbeat IPC: 2.0339 cumulative IPC: 1.95363 (Simulation time: 0 hr 21 min 15 sec) 
select_counter is 624
Heartbeat CPU 0 instructions: 65000001 cycles: 32091625 heartbeat IPC: 1.88945 cumulative IPC: 1.95243 (Simulation time: 0 hr 21 min 37 sec) 
select_counter is 618
Heartbeat CPU 0 instructions: 66000001 cycles: 32747803 heartbeat IPC: 1.52398 cumulative IPC: 1.94267 (Simulation time: 0 hr 22 min 4 sec) 
select_counter is 602
Heartbeat CPU 0 instructions: 67000003 cycles: 33337515 heartbeat IPC: 1.69575 cumulative IPC: 1.93772 (Simulation time: 0 hr 22 min 28 sec) 
select_counter is 569
Heartbeat CPU 0 instructions: 68000000 cycles: 33917806 heartbeat IPC: 1.72327 cumulative IPC: 1.93358 (Simulation time: 0 hr 22 min 49 sec) 
select_counter is 504
Heartbeat CPU 0 instructions: 69000001 cycles: 34505558 heartbeat IPC: 1.7014 cumulative IPC: 1.92911 (Simulation time: 0 hr 23 min 12 sec) 
select_counter is 448
Heartbeat CPU 0 instructions: 70000002 cycles: 35086664 heartbeat IPC: 1.72086 cumulative IPC: 1.92523 (Simulation time: 0 hr 23 min 33 sec) 
select_counter is 395
Heartbeat CPU 0 instructions: 71000003 cycles: 35656357 heartbeat IPC: 1.75533 cumulative IPC: 1.92218 (Simulation time: 0 hr 23 min 53 sec) 
select_counter is 343
Heartbeat CPU 0 instructions: 72000000 cycles: 36231552 heartbeat IPC: 1.73854 cumulative IPC: 1.91891 (Simulation time: 0 hr 24 min 13 sec) 
select_counter is 263
Heartbeat CPU 0 instructions: 73000000 cycles: 36803537 heartbeat IPC: 1.7483 cumulative IPC: 1.91594 (Simulation time: 0 hr 24 min 32 sec) 
select_counter is 182
Heartbeat CPU 0 instructions: 74000000 cycles: 37367925 heartbeat IPC: 1.77183 cumulative IPC: 1.91351 (Simulation time: 0 hr 24 min 53 sec) 
select_counter is 100
Heartbeat CPU 0 instructions: 75000000 cycles: 37997300 heartbeat IPC: 1.58888 cumulative IPC: 1.90752 (Simulation time: 0 hr 25 min 16 sec) 
select_counter is 44
Heartbeat CPU 0 instructions: 76000000 cycles: 38586332 heartbeat IPC: 1.6977 cumulative IPC: 1.90395 (Simulation time: 0 hr 25 min 42 sec) 
select_counter is 22
Heartbeat CPU 0 instructions: 77000003 cycles: 39158805 heartbeat IPC: 1.74681 cumulative IPC: 1.9014 (Simulation time: 0 hr 26 min 3 sec) 
select_counter is 997
Heartbeat CPU 0 instructions: 78000002 cycles: 39724413 heartbeat IPC: 1.76801 cumulative IPC: 1.89929 (Simulation time: 0 hr 26 min 26 sec) 
select_counter is 962
Heartbeat CPU 0 instructions: 79000001 cycles: 40284770 heartbeat IPC: 1.78457 cumulative IPC: 1.89752 (Simulation time: 0 hr 26 min 47 sec) 
select_counter is 935
Heartbeat CPU 0 instructions: 80000000 cycles: 40851681 heartbeat IPC: 1.76394 cumulative IPC: 1.89547 (Simulation time: 0 hr 27 min 9 sec) 
select_counter is 908
Heartbeat CPU 0 instructions: 81000001 cycles: 41418343 heartbeat IPC: 1.76472 cumulative IPC: 1.8935 (Simulation time: 0 hr 27 min 29 sec) 
select_counter is 868
Heartbeat CPU 0 instructions: 82000003 cycles: 41976568 heartbeat IPC: 1.7914 cumulative IPC: 1.892 (Simulation time: 0 hr 27 min 49 sec) 
select_counter is 821
Heartbeat CPU 0 instructions: 83000003 cycles: 42540443 heartbeat IPC: 1.77344 cumulative IPC: 1.89027 (Simulation time: 0 hr 28 min 9 sec) 
select_counter is 762
Heartbeat CPU 0 instructions: 84000000 cycles: 43141060 heartbeat IPC: 1.66495 cumulative IPC: 1.88682 (Simulation time: 0 hr 28 min 32 sec) 
select_counter is 708
Heartbeat CPU 0 instructions: 85000002 cycles: 43689728 heartbeat IPC: 1.8226 cumulative IPC: 1.88593 (Simulation time: 0 hr 28 min 52 sec) 
select_counter is 661
Heartbeat CPU 0 instructions: 86000001 cycles: 44395295 heartbeat IPC: 1.4173 cumulative IPC: 1.87776 (Simulation time: 0 hr 29 min 15 sec) 
select_counter is 613
Heartbeat CPU 0 instructions: 87000003 cycles: 44973009 heartbeat IPC: 1.73096 cumulative IPC: 1.8757 (Simulation time: 0 hr 29 min 36 sec) 
select_counter is 534
Heartbeat CPU 0 instructions: 88000000 cycles: 45440602 heartbeat IPC: 2.13861 cumulative IPC: 1.87866 (Simulation time: 0 hr 29 min 56 sec) 
select_counter is 489
Heartbeat CPU 0 instructions: 89000000 cycles: 45902225 heartbeat IPC: 2.16627 cumulative IPC: 1.88182 (Simulation time: 0 hr 30 min 15 sec) 
select_counter is 424
Heartbeat CPU 0 instructions: 90000001 cycles: 46364673 heartbeat IPC: 2.16241 cumulative IPC: 1.88488 (Simulation time: 0 hr 30 min 35 sec) 
select_counter is 363
Heartbeat CPU 0 instructions: 91000002 cycles: 46915469 heartbeat IPC: 1.81556 cumulative IPC: 1.88399 (Simulation time: 0 hr 30 min 56 sec) 
select_counter is 311
Heartbeat CPU 0 instructions: 92000000 cycles: 47448635 heartbeat IPC: 1.87558 cumulative IPC: 1.88388 (Simulation time: 0 hr 31 min 17 sec) 
select_counter is 249
Heartbeat CPU 0 instructions: 93000000 cycles: 47984030 heartbeat IPC: 1.86778 cumulative IPC: 1.88369 (Simulation time: 0 hr 31 min 40 sec) 
select_counter is 171
Heartbeat CPU 0 instructions: 94000003 cycles: 48502282 heartbeat IPC: 1.92957 cumulative IPC: 1.88422 (Simulation time: 0 hr 32 min 5 sec) 
select_counter is 98
Heartbeat CPU 0 instructions: 95000003 cycles: 49057218 heartbeat IPC: 1.80201 cumulative IPC: 1.88321 (Simulation time: 0 hr 32 min 30 sec) 
select_counter is 44
Heartbeat CPU 0 instructions: 96000000 cycles: 49542396 heartbeat IPC: 2.06109 cumulative IPC: 1.8851 (Simulation time: 0 hr 32 min 51 sec) 
select_counter is 6
Heartbeat CPU 0 instructions: 97000002 cycles: 50019652 heartbeat IPC: 2.09532 cumulative IPC: 1.88728 (Simulation time: 0 hr 33 min 11 sec) 
select_counter is 985
Heartbeat CPU 0 instructions: 98000001 cycles: 50478884 heartbeat IPC: 2.17755 cumulative IPC: 1.89014 (Simulation time: 0 hr 33 min 28 sec) 
select_counter is 937
Heartbeat CPU 0 instructions: 99000001 cycles: 51010655 heartbeat IPC: 1.88051 cumulative IPC: 1.89003 (Simulation time: 0 hr 33 min 53 sec) 
select_counter is 876
Heartbeat CPU 0 instructions: 100000000 cycles: 51498729 heartbeat IPC: 2.04887 cumulative IPC: 1.89166 (Simulation time: 0 hr 34 min 16 sec) 
select_counter is 831
Heartbeat CPU 0 instructions: 101000001 cycles: 51985114 heartbeat IPC: 2.05599 cumulative IPC: 1.89333 (Simulation time: 0 hr 34 min 38 sec) 
select_counter is 777
Heartbeat CPU 0 instructions: 102000003 cycles: 52455569 heartbeat IPC: 2.12561 cumulative IPC: 1.89558 (Simulation time: 0 hr 34 min 57 sec) 
select_counter is 721
Heartbeat CPU 0 instructions: 103000003 cycles: 52989237 heartbeat IPC: 1.87382 cumulative IPC: 1.89534 (Simulation time: 0 hr 35 min 22 sec) 
select_counter is 655
Heartbeat CPU 0 instructions: 104000000 cycles: 53542010 heartbeat IPC: 1.80906 cumulative IPC: 1.89438 (Simulation time: 0 hr 35 min 40 sec) 
select_counter is 621
Heartbeat CPU 0 instructions: 105000001 cycles: 53968224 heartbeat IPC: 2.34624 cumulative IPC: 1.89823 (Simulation time: 0 hr 36 min 1 sec) 
select_counter is 605
Heartbeat CPU 0 instructions: 106000002 cycles: 54414199 heartbeat IPC: 2.24228 cumulative IPC: 1.90127 (Simulation time: 0 hr 36 min 23 sec) 
select_counter is 591
Heartbeat CPU 0 instructions: 107000001 cycles: 54865075 heartbeat IPC: 2.2179 cumulative IPC: 1.90407 (Simulation time: 0 hr 36 min 44 sec) 
select_counter is 580
Heartbeat CPU 0 instructions: 108000000 cycles: 55283892 heartbeat IPC: 2.38768 cumulative IPC: 1.90801 (Simulation time: 0 hr 37 min 4 sec) 
select_counter is 568
Heartbeat CPU 0 instructions: 109000000 cycles: 55757154 heartbeat IPC: 2.11299 cumulative IPC: 1.90988 (Simulation time: 0 hr 37 min 23 sec) 
select_counter is 554
Heartbeat CPU 0 instructions: 110000000 cycles: 56175865 heartbeat IPC: 2.38828 cumulative IPC: 1.91372 (Simulation time: 0 hr 37 min 41 sec) 
select_counter is 546
Finished CPU 0 instructions: 100000000 cycles: 52254303 cummulative IPC: 1.91372 (Simulation time: 0 hr 37 min 41 sec) 

ChampSim completed all CPUs

Region of Interest Statistics

CPU 0 cummulative IPC: 1.91372 instructions: 100000000 cycles: 52254303
LLC TOTAL     ACCESS:     865125  HIT:     517045  MISS:     348080
LLC LOAD      ACCESS:     110526  HIT:      90741  MISS:      19785
LLC RFO       ACCESS:        414  HIT:        401  MISS:         13
LLC PREFETCH  ACCESS:     655873  HIT:     342496  MISS:     313377
LLC WRITEBACK ACCESS:      98312  HIT:      83407  MISS:      14905
Ship samples: 
19, 53, 71, 121, 146, 175, 195, 252, 263, 288, 340, 381, 392, 417, 458, 502, 525, 559, 607, 621, 662, 699, 732, 744, 774, 829, 851, 876, 913, 931, 977, 1018, 1028, 1075, 1106, 1142, 1181, 1185, 1225, 1276, 1297, 1323, 1364, 1407, 1413, 1442, 1500, 1526, 1541, 1573, 1610, 1663, 1676, 1718, 1758, 1788, 1809, 1836, 1856, 1902, 1940, 1983, 2011, 2038, 
Lime duel samples: 
13, 42, 81, 116, 153, 173, 201, 255, 270, 302, 346, 363, 401, 439, 456, 483, 542, 555, 596, 616, 658, 700, 729, 760, 771, 808, 859, 890, 923, 942, 988, 1017, 1055, 1065, 1092, 1121, 1160, 1201, 1241, 1257, 1296, 1338, 1348, 1399, 1414, 1443, 1495, 1532, 1537, 1577, 1623, 1659, 1672, 1697, 1738, 1766, 1816, 1824, 1864, 1906, 1923, 1957, 2000, 2016, 
Lime samples: 
13, 116, 201, 302, 401, 483, 596, 700, 771, 890, 988, 1065, 1160, 1257, 1348, 1443, 1537, 1659, 1738, 1824, 1923, 
Insertion Distribution: 
	LOAD 5297 0 0 0 0 0 3699 812 
	RFO 0 0 0 0 0 0 8 0 
	PREF 0 9916 0 0 0 0 37158 106923 
	WRITEBACK 0 0 0 0 0 0 0 4184 
Total Prefetch Downgrades: 3167
