
*** ChampSim Multicore Out-of-Order Simulator ***

Warmup Instructions: 10000000
Simulation Instructions: 100000000
Configuration: 2
Number of CPUs: 1
LLC sets: 2048
LLC ways: 16
Off-chip DRAM Channels: 1 Width: 64-bit Data Rate: 1600 MT/s

CPU 0 runs /datasets/cs240c-wi22-a00-public/data/Assignment2-gz/zeusmp_300B.trace.gz
CPU 0 L1D next line prefetcher
CPU 0 L2C IP-based stride prefetcher
Heartbeat CPU 0 instructions: 1000003 cycles: 509564 heartbeat IPC: 1.96247 cumulative IPC: 1.96247 (Simulation time: 0 hr 0 min 23 sec) 
select_counter is 510
Heartbeat CPU 0 instructions: 2000003 cycles: 1061796 heartbeat IPC: 1.81083 cumulative IPC: 1.8836 (Simulation time: 0 hr 0 min 44 sec) 
select_counter is 461
Heartbeat CPU 0 instructions: 3000002 cycles: 1605736 heartbeat IPC: 1.83844 cumulative IPC: 1.8683 (Simulation time: 0 hr 1 min 6 sec) 
select_counter is 473
Heartbeat CPU 0 instructions: 4000000 cycles: 2092525 heartbeat IPC: 2.05427 cumulative IPC: 1.91157 (Simulation time: 0 hr 1 min 27 sec) 
select_counter is 460
Heartbeat CPU 0 instructions: 5000001 cycles: 2575206 heartbeat IPC: 2.07176 cumulative IPC: 1.94159 (Simulation time: 0 hr 1 min 51 sec) 
select_counter is 442
Heartbeat CPU 0 instructions: 6000000 cycles: 3061903 heartbeat IPC: 2.05466 cumulative IPC: 1.95957 (Simulation time: 0 hr 2 min 17 sec) 
select_counter is 430
Heartbeat CPU 0 instructions: 7000001 cycles: 3590066 heartbeat IPC: 1.89336 cumulative IPC: 1.94983 (Simulation time: 0 hr 2 min 41 sec) 
select_counter is 410
Heartbeat CPU 0 instructions: 8000000 cycles: 4144097 heartbeat IPC: 1.80495 cumulative IPC: 1.93046 (Simulation time: 0 hr 3 min 2 sec) 
select_counter is 414
Heartbeat CPU 0 instructions: 9000000 cycles: 4671999 heartbeat IPC: 1.89429 cumulative IPC: 1.92637 (Simulation time: 0 hr 3 min 24 sec) 
select_counter is 417
Heartbeat CPU 0 instructions: 10000002 cycles: 5158295 heartbeat IPC: 2.05636 cumulative IPC: 1.93863 (Simulation time: 0 hr 3 min 50 sec) 
select_counter is 404

Warmup complete CPU 0 instructions: 10000002 cycles: 5158295 (Simulation time: 0 hr 3 min 50 sec) 

Heartbeat CPU 0 instructions: 11000003 cycles: 5847560 heartbeat IPC: 1.45082 cumulative IPC: 1.45082 (Simulation time: 0 hr 4 min 10 sec) 
select_counter is 419
Heartbeat CPU 0 instructions: 12000000 cycles: 6529483 heartbeat IPC: 1.46644 cumulative IPC: 1.45859 (Simulation time: 0 hr 4 min 33 sec) 
select_counter is 442
Heartbeat CPU 0 instructions: 13000000 cycles: 7321961 heartbeat IPC: 1.26186 cumulative IPC: 1.38653 (Simulation time: 0 hr 4 min 57 sec) 
select_counter is 460
Heartbeat CPU 0 instructions: 14000000 cycles: 8135320 heartbeat IPC: 1.22947 cumulative IPC: 1.34362 (Simulation time: 0 hr 5 min 22 sec) 
select_counter is 467
Heartbeat CPU 0 instructions: 15000002 cycles: 8863951 heartbeat IPC: 1.37244 cumulative IPC: 1.34929 (Simulation time: 0 hr 5 min 46 sec) 
select_counter is 481
Heartbeat CPU 0 instructions: 16000000 cycles: 9553681 heartbeat IPC: 1.44984 cumulative IPC: 1.36507 (Simulation time: 0 hr 6 min 9 sec) 
select_counter is 488
Heartbeat CPU 0 instructions: 17000003 cycles: 10246027 heartbeat IPC: 1.44437 cumulative IPC: 1.37586 (Simulation time: 0 hr 6 min 31 sec) 
select_counter is 503
Heartbeat CPU 0 instructions: 18000000 cycles: 10945269 heartbeat IPC: 1.43012 cumulative IPC: 1.38241 (Simulation time: 0 hr 6 min 54 sec) 
select_counter is 524
Heartbeat CPU 0 instructions: 19000003 cycles: 11760594 heartbeat IPC: 1.22651 cumulative IPC: 1.36316 (Simulation time: 0 hr 7 min 21 sec) 
select_counter is 535
Heartbeat CPU 0 instructions: 20000000 cycles: 12571558 heartbeat IPC: 1.2331 cumulative IPC: 1.34893 (Simulation time: 0 hr 7 min 43 sec) 
select_counter is 540
Heartbeat CPU 0 instructions: 21000001 cycles: 13281308 heartbeat IPC: 1.40895 cumulative IPC: 1.35418 (Simulation time: 0 hr 8 min 9 sec) 
select_counter is 531
Heartbeat CPU 0 instructions: 22000000 cycles: 13985324 heartbeat IPC: 1.42042 cumulative IPC: 1.35946 (Simulation time: 0 hr 8 min 36 sec) 
select_counter is 541
Heartbeat CPU 0 instructions: 23000001 cycles: 14687660 heartbeat IPC: 1.42382 cumulative IPC: 1.3642 (Simulation time: 0 hr 9 min 1 sec) 
select_counter is 570
Heartbeat CPU 0 instructions: 24000000 cycles: 15435468 heartbeat IPC: 1.33724 cumulative IPC: 1.36224 (Simulation time: 0 hr 9 min 28 sec) 
select_counter is 579
Heartbeat CPU 0 instructions: 25000000 cycles: 16246340 heartbeat IPC: 1.23324 cumulative IPC: 1.35281 (Simulation time: 0 hr 9 min 57 sec) 
select_counter is 597
Heartbeat CPU 0 instructions: 26000000 cycles: 17048053 heartbeat IPC: 1.24733 cumulative IPC: 1.3457 (Simulation time: 0 hr 10 min 20 sec) 
select_counter is 586
Heartbeat CPU 0 instructions: 27000002 cycles: 17750618 heartbeat IPC: 1.42336 cumulative IPC: 1.35003 (Simulation time: 0 hr 10 min 43 sec) 
select_counter is 581
Heartbeat CPU 0 instructions: 28000000 cycles: 18455364 heartbeat IPC: 1.41895 cumulative IPC: 1.35368 (Simulation time: 0 hr 11 min 3 sec) 
select_counter is 588
Heartbeat CPU 0 instructions: 29000003 cycles: 19158659 heartbeat IPC: 1.42188 cumulative IPC: 1.35711 (Simulation time: 0 hr 11 min 23 sec) 
select_counter is 599
Heartbeat CPU 0 instructions: 30000002 cycles: 19929655 heartbeat IPC: 1.29702 cumulative IPC: 1.35397 (Simulation time: 0 hr 11 min 47 sec) 
select_counter is 631
Heartbeat CPU 0 instructions: 31000001 cycles: 20745065 heartbeat IPC: 1.22638 cumulative IPC: 1.3473 (Simulation time: 0 hr 12 min 12 sec) 
select_counter is 636
Heartbeat CPU 0 instructions: 32000000 cycles: 21518934 heartbeat IPC: 1.29221 cumulative IPC: 1.34469 (Simulation time: 0 hr 12 min 37 sec) 
select_counter is 634
Heartbeat CPU 0 instructions: 33000000 cycles: 22219883 heartbeat IPC: 1.42664 cumulative IPC: 1.34806 (Simulation time: 0 hr 13 min 0 sec) 
select_counter is 635
Heartbeat CPU 0 instructions: 34000000 cycles: 22927388 heartbeat IPC: 1.41342 cumulative IPC: 1.35066 (Simulation time: 0 hr 13 min 27 sec) 
select_counter is 653
Heartbeat CPU 0 instructions: 35000000 cycles: 23627398 heartbeat IPC: 1.42855 cumulative IPC: 1.35361 (Simulation time: 0 hr 13 min 50 sec) 
select_counter is 672
Heartbeat CPU 0 instructions: 36000000 cycles: 24423623 heartbeat IPC: 1.25593 cumulative IPC: 1.34957 (Simulation time: 0 hr 14 min 14 sec) 
select_counter is 715
Heartbeat CPU 0 instructions: 37000003 cycles: 25238364 heartbeat IPC: 1.22739 cumulative IPC: 1.34462 (Simulation time: 0 hr 14 min 42 sec) 
select_counter is 704
Heartbeat CPU 0 instructions: 38000001 cycles: 25990312 heartbeat IPC: 1.32988 cumulative IPC: 1.34408 (Simulation time: 0 hr 15 min 3 sec) 
select_counter is 678
Heartbeat CPU 0 instructions: 39000002 cycles: 26690647 heartbeat IPC: 1.42789 cumulative IPC: 1.34681 (Simulation time: 0 hr 15 min 30 sec) 
select_counter is 676
Heartbeat CPU 0 instructions: 40000000 cycles: 27397873 heartbeat IPC: 1.41397 cumulative IPC: 1.34895 (Simulation time: 0 hr 15 min 53 sec) 
select_counter is 692
Heartbeat CPU 0 instructions: 41000001 cycles: 28097669 heartbeat IPC: 1.42899 cumulative IPC: 1.35139 (Simulation time: 0 hr 16 min 17 sec) 
select_counter is 709
Heartbeat CPU 0 instructions: 42000001 cycles: 28923672 heartbeat IPC: 1.21065 cumulative IPC: 1.3465 (Simulation time: 0 hr 16 min 38 sec) 
select_counter is 722
Heartbeat CPU 0 instructions: 43000000 cycles: 29733565 heartbeat IPC: 1.23473 cumulative IPC: 1.34281 (Simulation time: 0 hr 17 min 1 sec) 
select_counter is 722
Heartbeat CPU 0 instructions: 44000000 cycles: 30457160 heartbeat IPC: 1.38199 cumulative IPC: 1.34393 (Simulation time: 0 hr 17 min 23 sec) 
select_counter is 705
Heartbeat CPU 0 instructions: 45000002 cycles: 31161066 heartbeat IPC: 1.42065 cumulative IPC: 1.34601 (Simulation time: 0 hr 17 min 47 sec) 
select_counter is 696
Heartbeat CPU 0 instructions: 46000002 cycles: 31865783 heartbeat IPC: 1.41901 cumulative IPC: 1.34794 (Simulation time: 0 hr 18 min 7 sec) 
select_counter is 693
Heartbeat CPU 0 instructions: 47000001 cycles: 32602657 heartbeat IPC: 1.35708 cumulative IPC: 1.34818 (Simulation time: 0 hr 18 min 30 sec) 
select_counter is 702
Heartbeat CPU 0 instructions: 48000000 cycles: 33413119 heartbeat IPC: 1.23386 cumulative IPC: 1.3449 (Simulation time: 0 hr 18 min 57 sec) 
select_counter is 713
Heartbeat CPU 0 instructions: 49000003 cycles: 34219626 heartbeat IPC: 1.23992 cumulative IPC: 1.34199 (Simulation time: 0 hr 19 min 23 sec) 
select_counter is 712
Heartbeat CPU 0 instructions: 50000001 cycles: 34920504 heartbeat IPC: 1.42678 cumulative IPC: 1.34399 (Simulation time: 0 hr 19 min 46 sec) 
select_counter is 711
Heartbeat CPU 0 instructions: 51000002 cycles: 35622409 heartbeat IPC: 1.4247 cumulative IPC: 1.34585 (Simulation time: 0 hr 20 min 9 sec) 
select_counter is 729
Heartbeat CPU 0 instructions: 52000000 cycles: 36325952 heartbeat IPC: 1.42137 cumulative IPC: 1.34755 (Simulation time: 0 hr 20 min 33 sec) 
select_counter is 755
Heartbeat CPU 0 instructions: 53000000 cycles: 37088220 heartbeat IPC: 1.31187 cumulative IPC: 1.3467 (Simulation time: 0 hr 20 min 57 sec) 
select_counter is 789
Heartbeat CPU 0 instructions: 54000002 cycles: 37898133 heartbeat IPC: 1.2347 cumulative IPC: 1.34393 (Simulation time: 0 hr 21 min 25 sec) 
select_counter is 811
Heartbeat CPU 0 instructions: 55000001 cycles: 38679176 heartbeat IPC: 1.28034 cumulative IPC: 1.34245 (Simulation time: 0 hr 21 min 52 sec) 
select_counter is 805
Heartbeat CPU 0 instructions: 56000000 cycles: 39382152 heartbeat IPC: 1.42252 cumulative IPC: 1.34409 (Simulation time: 0 hr 22 min 16 sec) 
select_counter is 800
Heartbeat CPU 0 instructions: 57000000 cycles: 40088216 heartbeat IPC: 1.4163 cumulative IPC: 1.34555 (Simulation time: 0 hr 22 min 38 sec) 
select_counter is 811
Heartbeat CPU 0 instructions: 58000000 cycles: 40794304 heartbeat IPC: 1.41625 cumulative IPC: 1.34695 (Simulation time: 0 hr 23 min 3 sec) 
select_counter is 836
Heartbeat CPU 0 instructions: 59000003 cycles: 41578191 heartbeat IPC: 1.2757 cumulative IPC: 1.34542 (Simulation time: 0 hr 23 min 28 sec) 
select_counter is 851
Heartbeat CPU 0 instructions: 60000000 cycles: 42389477 heartbeat IPC: 1.23261 cumulative IPC: 1.34296 (Simulation time: 0 hr 23 min 53 sec) 
select_counter is 840
Heartbeat CPU 0 instructions: 61000000 cycles: 43147918 heartbeat IPC: 1.31849 cumulative IPC: 1.34247 (Simulation time: 0 hr 24 min 16 sec) 
select_counter is 817
Heartbeat CPU 0 instructions: 62000002 cycles: 43851422 heartbeat IPC: 1.42146 cumulative IPC: 1.34391 (Simulation time: 0 hr 24 min 42 sec) 
select_counter is 807
Heartbeat CPU 0 instructions: 63000003 cycles: 44556344 heartbeat IPC: 1.4186 cumulative IPC: 1.34524 (Simulation time: 0 hr 25 min 6 sec) 
select_counter is 812
Heartbeat CPU 0 instructions: 64000000 cycles: 45258464 heartbeat IPC: 1.42425 cumulative IPC: 1.34663 (Simulation time: 0 hr 25 min 30 sec) 
select_counter is 810
Heartbeat CPU 0 instructions: 65000003 cycles: 46073662 heartbeat IPC: 1.2267 cumulative IPC: 1.34424 (Simulation time: 0 hr 25 min 52 sec) 
select_counter is 831
Heartbeat CPU 0 instructions: 66000003 cycles: 46885738 heartbeat IPC: 1.23141 cumulative IPC: 1.34204 (Simulation time: 0 hr 26 min 17 sec) 
select_counter is 821
Heartbeat CPU 0 instructions: 67000002 cycles: 47619228 heartbeat IPC: 1.36334 cumulative IPC: 1.34241 (Simulation time: 0 hr 26 min 42 sec) 
select_counter is 828
Heartbeat CPU 0 instructions: 68000000 cycles: 48325063 heartbeat IPC: 1.41676 cumulative IPC: 1.34363 (Simulation time: 0 hr 27 min 6 sec) 
select_counter is 823
Heartbeat CPU 0 instructions: 69000000 cycles: 49033702 heartbeat IPC: 1.41116 cumulative IPC: 1.34472 (Simulation time: 0 hr 27 min 28 sec) 
select_counter is 798
Heartbeat CPU 0 instructions: 70000001 cycles: 49768870 heartbeat IPC: 1.36023 cumulative IPC: 1.34497 (Simulation time: 0 hr 27 min 50 sec) 
select_counter is 786
Heartbeat CPU 0 instructions: 71000001 cycles: 50576535 heartbeat IPC: 1.23814 cumulative IPC: 1.34307 (Simulation time: 0 hr 28 min 12 sec) 
select_counter is 788
Heartbeat CPU 0 instructions: 72000000 cycles: 51386808 heartbeat IPC: 1.23415 cumulative IPC: 1.34116 (Simulation time: 0 hr 28 min 38 sec) 
select_counter is 780
Heartbeat CPU 0 instructions: 73000003 cycles: 52097819 heartbeat IPC: 1.40645 cumulative IPC: 1.34215 (Simulation time: 0 hr 29 min 1 sec) 
select_counter is 770
Heartbeat CPU 0 instructions: 74000001 cycles: 52803696 heartbeat IPC: 1.41667 cumulative IPC: 1.34326 (Simulation time: 0 hr 29 min 27 sec) 
select_counter is 763
Heartbeat CPU 0 instructions: 75000003 cycles: 53511412 heartbeat IPC: 1.413 cumulative IPC: 1.34428 (Simulation time: 0 hr 29 min 52 sec) 
select_counter is 752
Heartbeat CPU 0 instructions: 76000000 cycles: 54269059 heartbeat IPC: 1.31987 cumulative IPC: 1.3439 (Simulation time: 0 hr 30 min 17 sec) 
select_counter is 740
Heartbeat CPU 0 instructions: 77000001 cycles: 55079500 heartbeat IPC: 1.2339 cumulative IPC: 1.34212 (Simulation time: 0 hr 30 min 40 sec) 
select_counter is 726
Heartbeat CPU 0 instructions: 78000003 cycles: 55868942 heartbeat IPC: 1.26672 cumulative IPC: 1.34094 (Simulation time: 0 hr 31 min 3 sec) 
select_counter is 731
Heartbeat CPU 0 instructions: 79000001 cycles: 56572006 heartbeat IPC: 1.42234 cumulative IPC: 1.34205 (Simulation time: 0 hr 31 min 26 sec) 
select_counter is 710
Heartbeat CPU 0 instructions: 80000000 cycles: 57276809 heartbeat IPC: 1.41883 cumulative IPC: 1.34309 (Simulation time: 0 hr 31 min 50 sec) 
select_counter is 694
Heartbeat CPU 0 instructions: 81000000 cycles: 57978739 heartbeat IPC: 1.42464 cumulative IPC: 1.34418 (Simulation time: 0 hr 32 min 12 sec) 
select_counter is 713
Heartbeat CPU 0 instructions: 82000002 cycles: 58756505 heartbeat IPC: 1.28574 cumulative IPC: 1.34333 (Simulation time: 0 hr 32 min 33 sec) 
select_counter is 736
Heartbeat CPU 0 instructions: 83000001 cycles: 59566304 heartbeat IPC: 1.23487 cumulative IPC: 1.34171 (Simulation time: 0 hr 32 min 58 sec) 
select_counter is 752
Heartbeat CPU 0 instructions: 84000000 cycles: 60329768 heartbeat IPC: 1.30982 cumulative IPC: 1.34127 (Simulation time: 0 hr 33 min 19 sec) 
select_counter is 760
Heartbeat CPU 0 instructions: 85000001 cycles: 61033233 heartbeat IPC: 1.42154 cumulative IPC: 1.34228 (Simulation time: 0 hr 33 min 42 sec) 
select_counter is 766
Heartbeat CPU 0 instructions: 86000002 cycles: 61738266 heartbeat IPC: 1.41837 cumulative IPC: 1.34323 (Simulation time: 0 hr 34 min 5 sec) 
select_counter is 766
Heartbeat CPU 0 instructions: 87000000 cycles: 62442875 heartbeat IPC: 1.41922 cumulative IPC: 1.34417 (Simulation time: 0 hr 34 min 30 sec) 
select_counter is 760
Heartbeat CPU 0 instructions: 88000000 cycles: 63248240 heartbeat IPC: 1.24167 cumulative IPC: 1.34275 (Simulation time: 0 hr 34 min 54 sec) 
select_counter is 734
Heartbeat CPU 0 instructions: 89000000 cycles: 64060001 heartbeat IPC: 1.23189 cumulative IPC: 1.34122 (Simulation time: 0 hr 35 min 20 sec) 
select_counter is 739
Heartbeat CPU 0 instructions: 90000002 cycles: 64802942 heartbeat IPC: 1.346 cumulative IPC: 1.34128 (Simulation time: 0 hr 35 min 46 sec) 
select_counter is 720
Heartbeat CPU 0 instructions: 91000002 cycles: 65511643 heartbeat IPC: 1.41103 cumulative IPC: 1.3421 (Simulation time: 0 hr 36 min 10 sec) 
select_counter is 703
Heartbeat CPU 0 instructions: 92000000 cycles: 66220494 heartbeat IPC: 1.41073 cumulative IPC: 1.34289 (Simulation time: 0 hr 36 min 33 sec) 
select_counter is 696
Heartbeat CPU 0 instructions: 93000001 cycles: 66922945 heartbeat IPC: 1.42359 cumulative IPC: 1.34381 (Simulation time: 0 hr 36 min 59 sec) 
select_counter is 698
Heartbeat CPU 0 instructions: 94000000 cycles: 67749664 heartbeat IPC: 1.2096 cumulative IPC: 1.34204 (Simulation time: 0 hr 37 min 23 sec) 
select_counter is 702
Heartbeat CPU 0 instructions: 95000003 cycles: 68561127 heartbeat IPC: 1.23235 cumulative IPC: 1.34063 (Simulation time: 0 hr 37 min 49 sec) 
select_counter is 700
Heartbeat CPU 0 instructions: 96000000 cycles: 69279269 heartbeat IPC: 1.39248 cumulative IPC: 1.34121 (Simulation time: 0 hr 38 min 10 sec) 
select_counter is 694
Heartbeat CPU 0 instructions: 97000001 cycles: 69986787 heartbeat IPC: 1.41339 cumulative IPC: 1.342 (Simulation time: 0 hr 38 min 30 sec) 
select_counter is 686
Heartbeat CPU 0 instructions: 98000000 cycles: 70694770 heartbeat IPC: 1.41246 cumulative IPC: 1.34276 (Simulation time: 0 hr 38 min 52 sec) 
select_counter is 693
Heartbeat CPU 0 instructions: 99000001 cycles: 71439477 heartbeat IPC: 1.34281 cumulative IPC: 1.34276 (Simulation time: 0 hr 39 min 11 sec) 
select_counter is 691
Heartbeat CPU 0 instructions: 100000000 cycles: 72251180 heartbeat IPC: 1.23198 cumulative IPC: 1.34142 (Simulation time: 0 hr 39 min 32 sec) 
select_counter is 700
Heartbeat CPU 0 instructions: 101000001 cycles: 73055199 heartbeat IPC: 1.24375 cumulative IPC: 1.34027 (Simulation time: 0 hr 39 min 55 sec) 
select_counter is 690
Heartbeat CPU 0 instructions: 102000003 cycles: 73760108 heartbeat IPC: 1.41863 cumulative IPC: 1.34107 (Simulation time: 0 hr 40 min 14 sec) 
select_counter is 679
Heartbeat CPU 0 instructions: 103000003 cycles: 74468654 heartbeat IPC: 1.41134 cumulative IPC: 1.34179 (Simulation time: 0 hr 40 min 33 sec) 
select_counter is 662
Heartbeat CPU 0 instructions: 104000000 cycles: 75173450 heartbeat IPC: 1.41885 cumulative IPC: 1.34257 (Simulation time: 0 hr 40 min 52 sec) 
select_counter is 612
Heartbeat CPU 0 instructions: 105000001 cycles: 75950476 heartbeat IPC: 1.28696 cumulative IPC: 1.34196 (Simulation time: 0 hr 41 min 13 sec) 
select_counter is 605
Heartbeat CPU 0 instructions: 106000002 cycles: 76756971 heartbeat IPC: 1.23993 cumulative IPC: 1.34081 (Simulation time: 0 hr 41 min 32 sec) 
select_counter is 607
Heartbeat CPU 0 instructions: 107000003 cycles: 77534178 heartbeat IPC: 1.28666 cumulative IPC: 1.34023 (Simulation time: 0 hr 41 min 51 sec) 
select_counter is 590
Heartbeat CPU 0 instructions: 108000000 cycles: 78239921 heartbeat IPC: 1.41694 cumulative IPC: 1.34097 (Simulation time: 0 hr 42 min 9 sec) 
select_counter is 560
Heartbeat CPU 0 instructions: 109000001 cycles: 78947121 heartbeat IPC: 1.41403 cumulative IPC: 1.34167 (Simulation time: 0 hr 42 min 27 sec) 
select_counter is 551
Heartbeat CPU 0 instructions: 110000000 cycles: 79651252 heartbeat IPC: 1.42019 cumulative IPC: 1.34241 (Simulation time: 0 hr 42 min 48 sec) 
select_counter is 558
Finished CPU 0 instructions: 100000002 cycles: 74492958 cummulative IPC: 1.34241 (Simulation time: 0 hr 42 min 48 sec) 

ChampSim completed all CPUs

Region of Interest Statistics

CPU 0 cummulative IPC: 1.34241 instructions: 100000002 cycles: 74492958
LLC TOTAL     ACCESS:     631694  HIT:     287342  MISS:     344352
LLC LOAD      ACCESS:      35375  HIT:       9834  MISS:      25541
LLC RFO       ACCESS:     152069  HIT:      75925  MISS:      76144
LLC PREFETCH  ACCESS:     288449  HIT:      75737  MISS:     212712
LLC WRITEBACK ACCESS:     155801  HIT:     125846  MISS:      29955
Ship samples: 
17, 59, 78, 105, 147, 177, 211, 252, 259, 303, 351, 355, 392, 433, 468, 505, 522, 559, 587, 637, 651, 692, 722, 744, 793, 806, 859, 877, 925, 957, 985, 996, 1029, 1079, 1114, 1128, 1162, 1211, 1230, 1268, 1304, 1313, 1369, 1407, 1410, 1464, 1492, 1516, 1563, 1579, 1618, 1658, 1679, 1703, 1737, 1785, 1806, 1838, 1881, 1909, 1942, 1969, 2001, 2043, 
Lime duel samples: 
0, 47, 74, 118, 133, 179, 214, 227, 266, 296, 336, 356, 405, 436, 473, 507, 517, 565, 600, 632, 670, 687, 734, 753, 790, 823, 856, 873, 900, 958, 977, 1014, 1035, 1084, 1117, 1141, 1161, 1190, 1243, 1265, 1285, 1324, 1345, 1381, 1431, 1456, 1479, 1508, 1553, 1578, 1616, 1652, 1689, 1717, 1729, 1773, 1813, 1850, 1875, 1893, 1930, 1965, 1994, 2045, 
Lime samples: 
0, 118, 214, 296, 405, 507, 600, 687, 790, 873, 977, 1084, 1161, 1265, 1345, 1456, 1553, 1652, 1729, 1850, 1930, 
Insertion Distribution: 
	LOAD 334 0 0 0 0 0 1153 668 
	RFO 17 0 0 0 0 0 7854 10021 
	PREF 0 2389 0 0 0 0 19457 15339 
	WRITEBACK 0 0 0 0 0 0 0 7122 
Total Prefetch Downgrades: 2864
