
*** ChampSim Multicore Out-of-Order Simulator ***

Warmup Instructions: 10000000
Simulation Instructions: 100000000
Configuration: 2
Number of CPUs: 1
LLC sets: 2048
LLC ways: 16
Off-chip DRAM Channels: 1 Width: 64-bit Data Rate: 1600 MT/s

CPU 0 runs /datasets/cs240c-wi22-a00-public/data/Assignment2-gz/sphinx3_1339B.trace.gz
CPU 0 L1D next line prefetcher
CPU 0 L2C IP-based stride prefetcher
Heartbeat CPU 0 instructions: 1000000 cycles: 339022 heartbeat IPC: 2.94966 cumulative IPC: 2.94966 (Simulation time: 0 hr 0 min 25 sec) 
select_counter is 512
Heartbeat CPU 0 instructions: 2000001 cycles: 693417 heartbeat IPC: 2.82171 cumulative IPC: 2.88427 (Simulation time: 0 hr 0 min 45 sec) 
select_counter is 526
Heartbeat CPU 0 instructions: 3000000 cycles: 1084504 heartbeat IPC: 2.55697 cumulative IPC: 2.76624 (Simulation time: 0 hr 1 min 10 sec) 
select_counter is 535
Heartbeat CPU 0 instructions: 4000000 cycles: 1530037 heartbeat IPC: 2.2445 cumulative IPC: 2.61432 (Simulation time: 0 hr 1 min 35 sec) 
select_counter is 486
Heartbeat CPU 0 instructions: 5000003 cycles: 1869057 heartbeat IPC: 2.94969 cumulative IPC: 2.67515 (Simulation time: 0 hr 1 min 59 sec) 
select_counter is 370
Heartbeat CPU 0 instructions: 6000002 cycles: 2253250 heartbeat IPC: 2.60286 cumulative IPC: 2.66282 (Simulation time: 0 hr 2 min 23 sec) 
select_counter is 154
Heartbeat CPU 0 instructions: 7000001 cycles: 2717161 heartbeat IPC: 2.15558 cumulative IPC: 2.57622 (Simulation time: 0 hr 2 min 44 sec) 
select_counter is 976
Heartbeat CPU 0 instructions: 8000000 cycles: 3056032 heartbeat IPC: 2.95097 cumulative IPC: 2.61777 (Simulation time: 0 hr 3 min 4 sec) 
select_counter is 916
Heartbeat CPU 0 instructions: 9000003 cycles: 3412599 heartbeat IPC: 2.80453 cumulative IPC: 2.63729 (Simulation time: 0 hr 3 min 26 sec) 
select_counter is 778
Heartbeat CPU 0 instructions: 10000001 cycles: 3799415 heartbeat IPC: 2.5852 cumulative IPC: 2.63198 (Simulation time: 0 hr 3 min 48 sec) 
select_counter is 497

Warmup complete CPU 0 instructions: 10000001 cycles: 3799415 (Simulation time: 0 hr 3 min 48 sec) 

Heartbeat CPU 0 instructions: 11000000 cycles: 4663178 heartbeat IPC: 1.15772 cumulative IPC: 1.15772 (Simulation time: 0 hr 4 min 16 sec) 
select_counter is 429
Heartbeat CPU 0 instructions: 12000000 cycles: 5457375 heartbeat IPC: 1.25913 cumulative IPC: 1.2063 (Simulation time: 0 hr 4 min 39 sec) 
select_counter is 330
Heartbeat CPU 0 instructions: 13000000 cycles: 6779035 heartbeat IPC: 0.756624 cumulative IPC: 1.00684 (Simulation time: 0 hr 5 min 3 sec) 
select_counter is 137
Heartbeat CPU 0 instructions: 14000000 cycles: 7650280 heartbeat IPC: 1.14778 cumulative IPC: 1.03873 (Simulation time: 0 hr 5 min 24 sec) 
select_counter is 984
Heartbeat CPU 0 instructions: 15000001 cycles: 8480644 heartbeat IPC: 1.20429 cumulative IPC: 1.0681 (Simulation time: 0 hr 5 min 49 sec) 
select_counter is 934
Heartbeat CPU 0 instructions: 16000000 cycles: 9489318 heartbeat IPC: 0.9914 cumulative IPC: 1.0545 (Simulation time: 0 hr 6 min 13 sec) 
select_counter is 767
Heartbeat CPU 0 instructions: 17000001 cycles: 10811511 heartbeat IPC: 0.75632 cumulative IPC: 0.998275 (Simulation time: 0 hr 6 min 37 sec) 
select_counter is 684
Heartbeat CPU 0 instructions: 18000003 cycles: 11868925 heartbeat IPC: 0.945705 cumulative IPC: 0.991386 (Simulation time: 0 hr 7 min 1 sec) 
select_counter is 631
Heartbeat CPU 0 instructions: 19000002 cycles: 12704511 heartbeat IPC: 1.19676 cumulative IPC: 1.01066 (Simulation time: 0 hr 7 min 26 sec) 
select_counter is 545
Heartbeat CPU 0 instructions: 20000000 cycles: 13533500 heartbeat IPC: 1.20629 cumulative IPC: 1.02732 (Simulation time: 0 hr 7 min 49 sec) 
select_counter is 504
Heartbeat CPU 0 instructions: 21000000 cycles: 14671313 heartbeat IPC: 0.878879 cumulative IPC: 1.01178 (Simulation time: 0 hr 8 min 14 sec) 
select_counter is 329
Heartbeat CPU 0 instructions: 22000000 cycles: 15649585 heartbeat IPC: 1.02221 cumulative IPC: 1.01264 (Simulation time: 0 hr 8 min 42 sec) 
select_counter is 172
Heartbeat CPU 0 instructions: 23000003 cycles: 16500102 heartbeat IPC: 1.17576 cumulative IPC: 1.02357 (Simulation time: 0 hr 9 min 7 sec) 
select_counter is 162
Heartbeat CPU 0 instructions: 24000000 cycles: 17422009 heartbeat IPC: 1.0847 cumulative IPC: 1.0277 (Simulation time: 0 hr 9 min 36 sec) 
select_counter is 62
Heartbeat CPU 0 instructions: 25000001 cycles: 18346799 heartbeat IPC: 1.08133 cumulative IPC: 1.03111 (Simulation time: 0 hr 9 min 58 sec) 
select_counter is 893
Heartbeat CPU 0 instructions: 26000003 cycles: 19153935 heartbeat IPC: 1.23895 cumulative IPC: 1.04204 (Simulation time: 0 hr 10 min 19 sec) 
select_counter is 879
Heartbeat CPU 0 instructions: 27000000 cycles: 19953846 heartbeat IPC: 1.25014 cumulative IPC: 1.05234 (Simulation time: 0 hr 10 min 42 sec) 
select_counter is 819
Heartbeat CPU 0 instructions: 28000000 cycles: 20865529 heartbeat IPC: 1.09687 cumulative IPC: 1.05472 (Simulation time: 0 hr 11 min 9 sec) 
select_counter is 614
Heartbeat CPU 0 instructions: 29000003 cycles: 21671763 heartbeat IPC: 1.24034 cumulative IPC: 1.06309 (Simulation time: 0 hr 11 min 39 sec) 
select_counter is 592
Heartbeat CPU 0 instructions: 30000003 cycles: 22464790 heartbeat IPC: 1.26099 cumulative IPC: 1.0715 (Simulation time: 0 hr 12 min 4 sec) 
select_counter is 539
Heartbeat CPU 0 instructions: 31000002 cycles: 23347636 heartbeat IPC: 1.1327 cumulative IPC: 1.07427 (Simulation time: 0 hr 12 min 29 sec) 
select_counter is 359
Heartbeat CPU 0 instructions: 32000000 cycles: 24201748 heartbeat IPC: 1.1708 cumulative IPC: 1.07831 (Simulation time: 0 hr 12 min 52 sec) 
select_counter is 314
Heartbeat CPU 0 instructions: 33000001 cycles: 25005238 heartbeat IPC: 1.24457 cumulative IPC: 1.08461 (Simulation time: 0 hr 13 min 18 sec) 
select_counter is 266
Heartbeat CPU 0 instructions: 34000001 cycles: 26366477 heartbeat IPC: 0.734625 cumulative IPC: 1.0635 (Simulation time: 0 hr 13 min 43 sec) 
select_counter is 176
Heartbeat CPU 0 instructions: 35000000 cycles: 27270576 heartbeat IPC: 1.10607 cumulative IPC: 1.06514 (Simulation time: 0 hr 14 min 9 sec) 
select_counter is 55
Heartbeat CPU 0 instructions: 36000000 cycles: 28135487 heartbeat IPC: 1.15619 cumulative IPC: 1.06837 (Simulation time: 0 hr 14 min 33 sec) 
select_counter is 58
Heartbeat CPU 0 instructions: 37000003 cycles: 29135688 heartbeat IPC: 0.999802 cumulative IPC: 1.06567 (Simulation time: 0 hr 15 min 1 sec) 
select_counter is 1015
Heartbeat CPU 0 instructions: 38000000 cycles: 30283194 heartbeat IPC: 0.871453 cumulative IPC: 1.05725 (Simulation time: 0 hr 15 min 25 sec) 
select_counter is 870
Heartbeat CPU 0 instructions: 39000000 cycles: 31147064 heartbeat IPC: 1.15758 cumulative IPC: 1.06042 (Simulation time: 0 hr 15 min 50 sec) 
select_counter is 836
Heartbeat CPU 0 instructions: 40000000 cycles: 31969463 heartbeat IPC: 1.21595 cumulative IPC: 1.06496 (Simulation time: 0 hr 16 min 14 sec) 
select_counter is 791
Heartbeat CPU 0 instructions: 41000000 cycles: 33155679 heartbeat IPC: 0.843017 cumulative IPC: 1.05599 (Simulation time: 0 hr 16 min 39 sec) 
select_counter is 687
Heartbeat CPU 0 instructions: 42000002 cycles: 34015467 heartbeat IPC: 1.16308 cumulative IPC: 1.05904 (Simulation time: 0 hr 17 min 2 sec) 
select_counter is 582
Heartbeat CPU 0 instructions: 43000001 cycles: 34860134 heartbeat IPC: 1.1839 cumulative IPC: 1.06244 (Simulation time: 0 hr 17 min 28 sec) 
select_counter is 568
Heartbeat CPU 0 instructions: 44000000 cycles: 35875106 heartbeat IPC: 0.985248 cumulative IPC: 1.05999 (Simulation time: 0 hr 17 min 53 sec) 
select_counter is 489
Heartbeat CPU 0 instructions: 45000002 cycles: 36872291 heartbeat IPC: 1.00282 cumulative IPC: 1.05827 (Simulation time: 0 hr 18 min 17 sec) 
select_counter is 375
Heartbeat CPU 0 instructions: 46000003 cycles: 37690755 heartbeat IPC: 1.2218 cumulative IPC: 1.06222 (Simulation time: 0 hr 18 min 43 sec) 
select_counter is 337
Heartbeat CPU 0 instructions: 47000001 cycles: 38517369 heartbeat IPC: 1.20975 cumulative IPC: 1.06573 (Simulation time: 0 hr 19 min 8 sec) 
select_counter is 300
Heartbeat CPU 0 instructions: 48000000 cycles: 39497759 heartbeat IPC: 1.02 cumulative IPC: 1.06448 (Simulation time: 0 hr 19 min 30 sec) 
select_counter is 170
Heartbeat CPU 0 instructions: 49000000 cycles: 40342284 heartbeat IPC: 1.1841 cumulative IPC: 1.06724 (Simulation time: 0 hr 19 min 57 sec) 
select_counter is 141
Heartbeat CPU 0 instructions: 50000000 cycles: 41153528 heartbeat IPC: 1.23267 cumulative IPC: 1.07083 (Simulation time: 0 hr 20 min 22 sec) 
select_counter is 109
Heartbeat CPU 0 instructions: 51000003 cycles: 42349761 heartbeat IPC: 0.83596 cumulative IPC: 1.06354 (Simulation time: 0 hr 20 min 47 sec) 
select_counter is 1
Heartbeat CPU 0 instructions: 52000000 cycles: 43173851 heartbeat IPC: 1.21346 cumulative IPC: 1.06668 (Simulation time: 0 hr 21 min 11 sec) 
select_counter is 942
Heartbeat CPU 0 instructions: 53000002 cycles: 44001925 heartbeat IPC: 1.20762 cumulative IPC: 1.06958 (Simulation time: 0 hr 21 min 32 sec) 
select_counter is 945
Heartbeat CPU 0 instructions: 54000003 cycles: 45092062 heartbeat IPC: 0.917317 cumulative IPC: 1.06557 (Simulation time: 0 hr 22 min 1 sec) 
select_counter is 820
Heartbeat CPU 0 instructions: 55000001 cycles: 45981813 heartbeat IPC: 1.12391 cumulative IPC: 1.0668 (Simulation time: 0 hr 22 min 26 sec) 
select_counter is 732
Heartbeat CPU 0 instructions: 56000000 cycles: 46815854 heartbeat IPC: 1.19898 cumulative IPC: 1.06936 (Simulation time: 0 hr 22 min 51 sec) 
select_counter is 721
Heartbeat CPU 0 instructions: 57000000 cycles: 47756504 heartbeat IPC: 1.06309 cumulative IPC: 1.06922 (Simulation time: 0 hr 23 min 18 sec) 
select_counter is 661
Heartbeat CPU 0 instructions: 58000000 cycles: 48805344 heartbeat IPC: 0.953434 cumulative IPC: 1.06653 (Simulation time: 0 hr 23 min 42 sec) 
select_counter is 513
Heartbeat CPU 0 instructions: 59000001 cycles: 49626225 heartbeat IPC: 1.2182 cumulative IPC: 1.06924 (Simulation time: 0 hr 24 min 9 sec) 
select_counter is 478
Heartbeat CPU 0 instructions: 60000000 cycles: 50444628 heartbeat IPC: 1.22189 cumulative IPC: 1.07192 (Simulation time: 0 hr 24 min 38 sec) 
select_counter is 470
Heartbeat CPU 0 instructions: 61000000 cycles: 51744181 heartbeat IPC: 0.769495 cumulative IPC: 1.06372 (Simulation time: 0 hr 25 min 7 sec) 
select_counter is 389
Heartbeat CPU 0 instructions: 62000002 cycles: 52887615 heartbeat IPC: 0.87456 cumulative IPC: 1.05932 (Simulation time: 0 hr 25 min 35 sec) 
select_counter is 389
Heartbeat CPU 0 instructions: 63000003 cycles: 53696475 heartbeat IPC: 1.23631 cumulative IPC: 1.06219 (Simulation time: 0 hr 26 min 0 sec) 
select_counter is 277
Heartbeat CPU 0 instructions: 64000000 cycles: 54530977 heartbeat IPC: 1.19832 cumulative IPC: 1.06443 (Simulation time: 0 hr 26 min 24 sec) 
select_counter is 286
Heartbeat CPU 0 instructions: 65000000 cycles: 55584048 heartbeat IPC: 0.949604 cumulative IPC: 1.06209 (Simulation time: 0 hr 26 min 50 sec) 
select_counter is 233
Heartbeat CPU 0 instructions: 66000001 cycles: 56569221 heartbeat IPC: 1.01505 cumulative IPC: 1.06121 (Simulation time: 0 hr 27 min 13 sec) 
select_counter is 137
Heartbeat CPU 0 instructions: 67000000 cycles: 57380689 heartbeat IPC: 1.23233 cumulative IPC: 1.0638 (Simulation time: 0 hr 27 min 44 sec) 
select_counter is 115
Heartbeat CPU 0 instructions: 68000000 cycles: 58256043 heartbeat IPC: 1.1424 cumulative IPC: 1.06507 (Simulation time: 0 hr 28 min 9 sec) 
select_counter is 95
Heartbeat CPU 0 instructions: 69000003 cycles: 59364153 heartbeat IPC: 0.90244 cumulative IPC: 1.06182 (Simulation time: 0 hr 28 min 32 sec) 
select_counter is 1015
Heartbeat CPU 0 instructions: 70000001 cycles: 60182773 heartbeat IPC: 1.22157 cumulative IPC: 1.06414 (Simulation time: 0 hr 28 min 54 sec) 
select_counter is 934
Heartbeat CPU 0 instructions: 71000001 cycles: 61008764 heartbeat IPC: 1.21067 cumulative IPC: 1.06626 (Simulation time: 0 hr 29 min 23 sec) 
select_counter is 931
Heartbeat CPU 0 instructions: 72000000 cycles: 62178974 heartbeat IPC: 0.854547 cumulative IPC: 1.06202 (Simulation time: 0 hr 29 min 55 sec) 
select_counter is 854
Heartbeat CPU 0 instructions: 73000001 cycles: 62985365 heartbeat IPC: 1.24009 cumulative IPC: 1.06444 (Simulation time: 0 hr 30 min 19 sec) 
select_counter is 725
Heartbeat CPU 0 instructions: 74000000 cycles: 63808277 heartbeat IPC: 1.2152 cumulative IPC: 1.06651 (Simulation time: 0 hr 30 min 46 sec) 
select_counter is 709
Heartbeat CPU 0 instructions: 75000003 cycles: 64861572 heartbeat IPC: 0.949404 cumulative IPC: 1.06449 (Simulation time: 0 hr 31 min 11 sec) 
select_counter is 632
Heartbeat CPU 0 instructions: 76000000 cycles: 65777210 heartbeat IPC: 1.09213 cumulative IPC: 1.0649 (Simulation time: 0 hr 31 min 33 sec) 
select_counter is 515
Heartbeat CPU 0 instructions: 77000002 cycles: 66577330 heartbeat IPC: 1.24981 cumulative IPC: 1.06725 (Simulation time: 0 hr 31 min 53 sec) 
select_counter is 458
Heartbeat CPU 0 instructions: 78000002 cycles: 67478413 heartbeat IPC: 1.10978 cumulative IPC: 1.06786 (Simulation time: 0 hr 32 min 22 sec) 
select_counter is 426
Heartbeat CPU 0 instructions: 79000001 cycles: 68527157 heartbeat IPC: 0.953521 cumulative IPC: 1.066 (Simulation time: 0 hr 32 min 49 sec) 
select_counter is 284
Heartbeat CPU 0 instructions: 80000000 cycles: 69350102 heartbeat IPC: 1.21515 cumulative IPC: 1.06788 (Simulation time: 0 hr 33 min 14 sec) 
select_counter is 216
Heartbeat CPU 0 instructions: 81000003 cycles: 70179962 heartbeat IPC: 1.20503 cumulative IPC: 1.06959 (Simulation time: 0 hr 33 min 38 sec) 
select_counter is 214
Heartbeat CPU 0 instructions: 82000000 cycles: 71330791 heartbeat IPC: 0.868936 cumulative IPC: 1.06617 (Simulation time: 0 hr 34 min 1 sec) 
select_counter is 101
Heartbeat CPU 0 instructions: 83000001 cycles: 72143424 heartbeat IPC: 1.23057 cumulative IPC: 1.06813 (Simulation time: 0 hr 34 min 26 sec) 
select_counter is 1002
Heartbeat CPU 0 instructions: 84000000 cycles: 72977372 heartbeat IPC: 1.19911 cumulative IPC: 1.0697 (Simulation time: 0 hr 34 min 52 sec) 
select_counter is 1000
Heartbeat CPU 0 instructions: 85000002 cycles: 74095536 heartbeat IPC: 0.894325 cumulative IPC: 1.06692 (Simulation time: 0 hr 35 min 20 sec) 
select_counter is 936
Heartbeat CPU 0 instructions: 86000003 cycles: 74950523 heartbeat IPC: 1.16961 cumulative IPC: 1.06815 (Simulation time: 0 hr 35 min 43 sec) 
select_counter is 819
Heartbeat CPU 0 instructions: 87000001 cycles: 75758622 heartbeat IPC: 1.23747 cumulative IPC: 1.07005 (Simulation time: 0 hr 36 min 7 sec) 
select_counter is 780
Heartbeat CPU 0 instructions: 88000000 cycles: 76744546 heartbeat IPC: 1.01428 cumulative IPC: 1.0693 (Simulation time: 0 hr 36 min 31 sec) 
select_counter is 731
Heartbeat CPU 0 instructions: 89000000 cycles: 77734299 heartbeat IPC: 1.01035 cumulative IPC: 1.06851 (Simulation time: 0 hr 36 min 55 sec) 
select_counter is 616
Heartbeat CPU 0 instructions: 90000003 cycles: 78509028 heartbeat IPC: 1.29078 cumulative IPC: 1.07081 (Simulation time: 0 hr 37 min 19 sec) 
select_counter is 569
Heartbeat CPU 0 instructions: 91000000 cycles: 79341642 heartbeat IPC: 1.20103 cumulative IPC: 1.07225 (Simulation time: 0 hr 37 min 44 sec) 
select_counter is 560
Heartbeat CPU 0 instructions: 92000000 cycles: 80491297 heartbeat IPC: 0.869826 cumulative IPC: 1.06921 (Simulation time: 0 hr 38 min 5 sec) 
select_counter is 411
Heartbeat CPU 0 instructions: 93000001 cycles: 81304159 heartbeat IPC: 1.23022 cumulative IPC: 1.0709 (Simulation time: 0 hr 38 min 33 sec) 
select_counter is 332
Heartbeat CPU 0 instructions: 94000001 cycles: 82130169 heartbeat IPC: 1.21064 cumulative IPC: 1.07238 (Simulation time: 0 hr 38 min 59 sec) 
select_counter is 335
Heartbeat CPU 0 instructions: 95000002 cycles: 83308521 heartbeat IPC: 0.848644 cumulative IPC: 1.06906 (Simulation time: 0 hr 39 min 21 sec) 
select_counter is 236
Heartbeat CPU 0 instructions: 96000000 cycles: 84131768 heartbeat IPC: 1.2147 cumulative IPC: 1.07055 (Simulation time: 0 hr 39 min 43 sec) 
select_counter is 121
Heartbeat CPU 0 instructions: 97000002 cycles: 84958165 heartbeat IPC: 1.21007 cumulative IPC: 1.07197 (Simulation time: 0 hr 40 min 7 sec) 
select_counter is 102
Heartbeat CPU 0 instructions: 98000000 cycles: 86022066 heartbeat IPC: 0.939935 cumulative IPC: 1.07026 (Simulation time: 0 hr 40 min 29 sec) 
select_counter is 37
Heartbeat CPU 0 instructions: 99000003 cycles: 87093903 heartbeat IPC: 0.93298 cumulative IPC: 1.0685 (Simulation time: 0 hr 40 min 52 sec) 
select_counter is 961
Heartbeat CPU 0 instructions: 100000000 cycles: 87902075 heartbeat IPC: 1.23736 cumulative IPC: 1.07012 (Simulation time: 0 hr 41 min 15 sec) 
select_counter is 911
Heartbeat CPU 0 instructions: 101000000 cycles: 88740816 heartbeat IPC: 1.19226 cumulative IPC: 1.07133 (Simulation time: 0 hr 41 min 38 sec) 
select_counter is 912
Heartbeat CPU 0 instructions: 102000001 cycles: 90164037 heartbeat IPC: 0.702632 cumulative IPC: 1.06525 (Simulation time: 0 hr 41 min 59 sec) 
select_counter is 884
Heartbeat CPU 0 instructions: 103000000 cycles: 91434616 heartbeat IPC: 0.787042 cumulative IPC: 1.06122 (Simulation time: 0 hr 42 min 18 sec) 
select_counter is 912
Heartbeat CPU 0 instructions: 104000000 cycles: 92369034 heartbeat IPC: 1.07018 cumulative IPC: 1.06131 (Simulation time: 0 hr 42 min 39 sec) 
select_counter is 870
Heartbeat CPU 0 instructions: 105000003 cycles: 93174708 heartbeat IPC: 1.2412 cumulative IPC: 1.06293 (Simulation time: 0 hr 42 min 56 sec) 
select_counter is 823
Heartbeat CPU 0 instructions: 106000000 cycles: 94034507 heartbeat IPC: 1.16306 cumulative IPC: 1.06389 (Simulation time: 0 hr 43 min 18 sec) 
select_counter is 830
Heartbeat CPU 0 instructions: 107000001 cycles: 95453205 heartbeat IPC: 0.704872 cumulative IPC: 1.05833 (Simulation time: 0 hr 43 min 36 sec) 
select_counter is 824
Heartbeat CPU 0 instructions: 108000000 cycles: 96339217 heartbeat IPC: 1.12865 cumulative IPC: 1.059 (Simulation time: 0 hr 43 min 55 sec) 
select_counter is 737
Heartbeat CPU 0 instructions: 109000000 cycles: 97170130 heartbeat IPC: 1.2035 cumulative IPC: 1.06029 (Simulation time: 0 hr 44 min 12 sec) 
select_counter is 722
Heartbeat CPU 0 instructions: 110000000 cycles: 98273168 heartbeat IPC: 0.906587 cumulative IPC: 1.0585 (Simulation time: 0 hr 44 min 28 sec) 
select_counter is 705
Finished CPU 0 instructions: 100000000 cycles: 94473755 cummulative IPC: 1.0585 (Simulation time: 0 hr 44 min 28 sec) 

ChampSim completed all CPUs

Region of Interest Statistics

CPU 0 cummulative IPC: 1.0585 instructions: 100000000 cycles: 94473755
LLC TOTAL     ACCESS:    1574030  HIT:     826481  MISS:     747549
LLC LOAD      ACCESS:     202298  HIT:     172278  MISS:      30020
LLC RFO       ACCESS:     111353  HIT:     108907  MISS:       2446
LLC PREFETCH  ACCESS:    1127225  HIT:     413235  MISS:     713990
LLC WRITEBACK ACCESS:     133154  HIT:     132061  MISS:       1093
Ship samples: 
0, 33, 67, 119, 133, 180, 213, 253, 282, 310, 347, 369, 410, 421, 455, 490, 525, 545, 594, 630, 655, 676, 713, 761, 784, 831, 853, 866, 916, 937, 963, 1016, 1042, 1057, 1119, 1145, 1181, 1202, 1239, 1250, 1305, 1327, 1360, 1392, 1419, 1454, 1482, 1532, 1551, 1574, 1622, 1655, 1694, 1714, 1759, 1789, 1814, 1832, 1886, 1898, 1938, 1975, 2015, 2041, 
Lime duel samples: 
19, 55, 89, 103, 134, 183, 205, 254, 277, 289, 321, 376, 399, 428, 470, 502, 520, 555, 592, 632, 663, 682, 708, 738, 771, 804, 840, 878, 897, 953, 970, 1009, 1038, 1064, 1098, 1144, 1161, 1214, 1247, 1269, 1287, 1313, 1359, 1394, 1412, 1465, 1486, 1510, 1564, 1597, 1614, 1632, 1683, 1706, 1749, 1780, 1817, 1836, 1862, 1912, 1929, 1976, 2012, 2036, 
Lime samples: 
19, 103, 205, 289, 399, 502, 592, 682, 771, 878, 970, 1064, 1161, 1269, 1359, 1465, 1564, 1632, 1749, 1836, 1929, 
Insertion Distribution: 
	LOAD 7749 0 0 0 0 0 6814 2021 
	RFO 300 0 0 0 0 0 774 70 
	PREF 0 1436 0 0 0 0 62540 318248 
	WRITEBACK 0 0 0 0 0 0 0 1025 
Total Prefetch Downgrades: 8521
