
*** ChampSim Multicore Out-of-Order Simulator ***

Warmup Instructions: 10000000
Simulation Instructions: 100000000
Configuration: 2
Number of CPUs: 1
LLC sets: 2048
LLC ways: 16
Off-chip DRAM Channels: 1 Width: 64-bit Data Rate: 1600 MT/s

CPU 0 runs /datasets/cs240c-wi22-a00-public/data/Assignment2-gz/cactusADM_1495B.trace.gz
CPU 0 L1D next line prefetcher
CPU 0 L2C IP-based stride prefetcher
Heartbeat CPU 0 instructions: 1000003 cycles: 593383 heartbeat IPC: 1.68526 cumulative IPC: 1.68526 (Simulation time: 0 hr 0 min 29 sec) 
select_counter is 510
Heartbeat CPU 0 instructions: 2000000 cycles: 1186345 heartbeat IPC: 1.68644 cumulative IPC: 1.68585 (Simulation time: 0 hr 0 min 55 sec) 
select_counter is 509
Heartbeat CPU 0 instructions: 3000003 cycles: 1779703 heartbeat IPC: 1.68533 cumulative IPC: 1.68568 (Simulation time: 0 hr 1 min 25 sec) 
select_counter is 507
Heartbeat CPU 0 instructions: 4000000 cycles: 2372522 heartbeat IPC: 1.68685 cumulative IPC: 1.68597 (Simulation time: 0 hr 1 min 58 sec) 
select_counter is 514
Heartbeat CPU 0 instructions: 5000000 cycles: 2965579 heartbeat IPC: 1.68618 cumulative IPC: 1.68601 (Simulation time: 0 hr 2 min 27 sec) 
select_counter is 515
Heartbeat CPU 0 instructions: 6000001 cycles: 3558796 heartbeat IPC: 1.68573 cumulative IPC: 1.68596 (Simulation time: 0 hr 2 min 52 sec) 
select_counter is 513
Heartbeat CPU 0 instructions: 7000000 cycles: 4151738 heartbeat IPC: 1.6865 cumulative IPC: 1.68604 (Simulation time: 0 hr 3 min 22 sec) 
select_counter is 529
Heartbeat CPU 0 instructions: 8000000 cycles: 4906669 heartbeat IPC: 1.32462 cumulative IPC: 1.63043 (Simulation time: 0 hr 4 min 1 sec) 
select_counter is 746
Heartbeat CPU 0 instructions: 9000002 cycles: 5499867 heartbeat IPC: 1.68578 cumulative IPC: 1.6364 (Simulation time: 0 hr 4 min 31 sec) 
select_counter is 803
Heartbeat CPU 0 instructions: 10000002 cycles: 6092791 heartbeat IPC: 1.68656 cumulative IPC: 1.64128 (Simulation time: 0 hr 5 min 2 sec) 
select_counter is 841

Warmup complete CPU 0 instructions: 10000002 cycles: 6092791 (Simulation time: 0 hr 5 min 2 sec) 

Heartbeat CPU 0 instructions: 11000000 cycles: 7785821 heartbeat IPC: 0.590656 cumulative IPC: 0.590656 (Simulation time: 0 hr 5 min 34 sec) 
select_counter is 882
Heartbeat CPU 0 instructions: 12000000 cycles: 9529503 heartbeat IPC: 0.573499 cumulative IPC: 0.581951 (Simulation time: 0 hr 6 min 7 sec) 
select_counter is 891
Heartbeat CPU 0 instructions: 13000002 cycles: 11274628 heartbeat IPC: 0.573026 cumulative IPC: 0.578945 (Simulation time: 0 hr 6 min 38 sec) 
select_counter is 913
Heartbeat CPU 0 instructions: 14000001 cycles: 13009556 heartbeat IPC: 0.576392 cumulative IPC: 0.578305 (Simulation time: 0 hr 7 min 12 sec) 
select_counter is 938
Heartbeat CPU 0 instructions: 15000001 cycles: 14666860 heartbeat IPC: 0.60339 cumulative IPC: 0.583154 (Simulation time: 0 hr 7 min 41 sec) 
select_counter is 968
Heartbeat CPU 0 instructions: 16000000 cycles: 16387891 heartbeat IPC: 0.581046 cumulative IPC: 0.582801 (Simulation time: 0 hr 8 min 13 sec) 
select_counter is 1005
Heartbeat CPU 0 instructions: 17000003 cycles: 18131462 heartbeat IPC: 0.573537 cumulative IPC: 0.58146 (Simulation time: 0 hr 8 min 42 sec) 
select_counter is 1022
Heartbeat CPU 0 instructions: 18000000 cycles: 19877270 heartbeat IPC: 0.572799 cumulative IPC: 0.580363 (Simulation time: 0 hr 9 min 14 sec) 
select_counter is 1023
Heartbeat CPU 0 instructions: 19000002 cycles: 21587639 heartbeat IPC: 0.58467 cumulative IPC: 0.580838 (Simulation time: 0 hr 9 min 45 sec) 
select_counter is 1017
Heartbeat CPU 0 instructions: 20000000 cycles: 23253693 heartbeat IPC: 0.600219 cumulative IPC: 0.58272 (Simulation time: 0 hr 10 min 15 sec) 
select_counter is 1017
Heartbeat CPU 0 instructions: 21000001 cycles: 29672462 heartbeat IPC: 0.155793 cumulative IPC: 0.466504 (Simulation time: 0 hr 10 min 50 sec) 
select_counter is 1006
Heartbeat CPU 0 instructions: 22000000 cycles: 31775003 heartbeat IPC: 0.475615 cumulative IPC: 0.467249 (Simulation time: 0 hr 11 min 20 sec) 
select_counter is 1013
Heartbeat CPU 0 instructions: 23000001 cycles: 33508242 heartbeat IPC: 0.576955 cumulative IPC: 0.474185 (Simulation time: 0 hr 11 min 54 sec) 
select_counter is 1013
Heartbeat CPU 0 instructions: 24000000 cycles: 35165603 heartbeat IPC: 0.603368 cumulative IPC: 0.48155 (Simulation time: 0 hr 12 min 25 sec) 
select_counter is 1015
Heartbeat CPU 0 instructions: 25000002 cycles: 36893999 heartbeat IPC: 0.578572 cumulative IPC: 0.486994 (Simulation time: 0 hr 12 min 59 sec) 
select_counter is 1019
Heartbeat CPU 0 instructions: 26000000 cycles: 38649538 heartbeat IPC: 0.569624 cumulative IPC: 0.49145 (Simulation time: 0 hr 13 min 27 sec) 
select_counter is 1008
Heartbeat CPU 0 instructions: 27000002 cycles: 40390112 heartbeat IPC: 0.574524 cumulative IPC: 0.495666 (Simulation time: 0 hr 13 min 55 sec) 
select_counter is 991
Heartbeat CPU 0 instructions: 28000000 cycles: 42100420 heartbeat IPC: 0.584689 cumulative IPC: 0.499894 (Simulation time: 0 hr 14 min 23 sec) 
select_counter is 1000
Heartbeat CPU 0 instructions: 29000003 cycles: 43759933 heartbeat IPC: 0.602588 cumulative IPC: 0.504418 (Simulation time: 0 hr 14 min 52 sec) 
select_counter is 1010
Heartbeat CPU 0 instructions: 30000000 cycles: 45528578 heartbeat IPC: 0.565403 cumulative IPC: 0.507154 (Simulation time: 0 hr 15 min 22 sec) 
select_counter is 1023
Heartbeat CPU 0 instructions: 31000003 cycles: 47270930 heartbeat IPC: 0.573939 cumulative IPC: 0.509979 (Simulation time: 0 hr 15 min 49 sec) 
select_counter is 1019
Heartbeat CPU 0 instructions: 32000000 cycles: 49010595 heartbeat IPC: 0.574822 cumulative IPC: 0.512608 (Simulation time: 0 hr 16 min 20 sec) 
select_counter is 1017
Heartbeat CPU 0 instructions: 33000001 cycles: 50691597 heartbeat IPC: 0.594884 cumulative IPC: 0.515709 (Simulation time: 0 hr 16 min 49 sec) 
select_counter is 1016
Heartbeat CPU 0 instructions: 34000002 cycles: 56185432 heartbeat IPC: 0.182022 cumulative IPC: 0.479112 (Simulation time: 0 hr 17 min 26 sec) 
select_counter is 1015
Heartbeat CPU 0 instructions: 35000002 cycles: 59200193 heartbeat IPC: 0.331701 cumulative IPC: 0.470744 (Simulation time: 0 hr 18 min 0 sec) 
select_counter is 995
Heartbeat CPU 0 instructions: 36000000 cycles: 60939325 heartbeat IPC: 0.574998 cumulative IPC: 0.47405 (Simulation time: 0 hr 18 min 32 sec) 
select_counter is 981
Heartbeat CPU 0 instructions: 37000001 cycles: 62656567 heartbeat IPC: 0.58233 cumulative IPC: 0.477337 (Simulation time: 0 hr 19 min 1 sec) 
select_counter is 980
Heartbeat CPU 0 instructions: 38000003 cycles: 64313531 heartbeat IPC: 0.603515 cumulative IPC: 0.480928 (Simulation time: 0 hr 19 min 31 sec) 
select_counter is 982
Heartbeat CPU 0 instructions: 39000003 cycles: 66046591 heartbeat IPC: 0.577014 cumulative IPC: 0.483706 (Simulation time: 0 hr 20 min 1 sec) 
select_counter is 968
Heartbeat CPU 0 instructions: 40000000 cycles: 67788848 heartbeat IPC: 0.573966 cumulative IPC: 0.486255 (Simulation time: 0 hr 20 min 31 sec) 
select_counter is 948
Heartbeat CPU 0 instructions: 41000002 cycles: 69528941 heartbeat IPC: 0.574683 cumulative IPC: 0.48868 (Simulation time: 0 hr 21 min 3 sec) 
select_counter is 936
Heartbeat CPU 0 instructions: 42000000 cycles: 71212277 heartbeat IPC: 0.594057 cumulative IPC: 0.491404 (Simulation time: 0 hr 21 min 35 sec) 
select_counter is 927
Heartbeat CPU 0 instructions: 43000000 cycles: 72896992 heartbeat IPC: 0.593572 cumulative IPC: 0.493981 (Simulation time: 0 hr 22 min 7 sec) 
select_counter is 924
Heartbeat CPU 0 instructions: 44000000 cycles: 74637593 heartbeat IPC: 0.574514 cumulative IPC: 0.496026 (Simulation time: 0 hr 22 min 36 sec) 
select_counter is 912
Heartbeat CPU 0 instructions: 45000003 cycles: 76379521 heartbeat IPC: 0.574078 cumulative IPC: 0.49796 (Simulation time: 0 hr 23 min 5 sec) 
select_counter is 909
Heartbeat CPU 0 instructions: 46000002 cycles: 78113988 heartbeat IPC: 0.576545 cumulative IPC: 0.499853 (Simulation time: 0 hr 23 min 36 sec) 
select_counter is 925
Heartbeat CPU 0 instructions: 47000001 cycles: 82560569 heartbeat IPC: 0.224892 cumulative IPC: 0.483864 (Simulation time: 0 hr 24 min 8 sec) 
select_counter is 761
Heartbeat CPU 0 instructions: 48000000 cycles: 86578297 heartbeat IPC: 0.248897 cumulative IPC: 0.472135 (Simulation time: 0 hr 24 min 44 sec) 
select_counter is 628
Heartbeat CPU 0 instructions: 49000000 cycles: 88316334 heartbeat IPC: 0.575362 cumulative IPC: 0.474317 (Simulation time: 0 hr 25 min 16 sec) 
select_counter is 634
Heartbeat CPU 0 instructions: 50000000 cycles: 90055218 heartbeat IPC: 0.575081 cumulative IPC: 0.476404 (Simulation time: 0 hr 25 min 44 sec) 
select_counter is 642
Heartbeat CPU 0 instructions: 51000000 cycles: 91743202 heartbeat IPC: 0.592423 cumulative IPC: 0.47869 (Simulation time: 0 hr 26 min 16 sec) 
select_counter is 638
Heartbeat CPU 0 instructions: 52000000 cycles: 93422635 heartbeat IPC: 0.595439 cumulative IPC: 0.480935 (Simulation time: 0 hr 26 min 48 sec) 
select_counter is 621
Heartbeat CPU 0 instructions: 53000003 cycles: 95160351 heartbeat IPC: 0.57547 cumulative IPC: 0.48278 (Simulation time: 0 hr 27 min 15 sec) 
select_counter is 617
Heartbeat CPU 0 instructions: 54000001 cycles: 96898869 heartbeat IPC: 0.575201 cumulative IPC: 0.484549 (Simulation time: 0 hr 27 min 49 sec) 
select_counter is 627
Heartbeat CPU 0 instructions: 55000000 cycles: 98634551 heartbeat IPC: 0.576142 cumulative IPC: 0.486267 (Simulation time: 0 hr 28 min 21 sec) 
select_counter is 626
Heartbeat CPU 0 instructions: 56000000 cycles: 100292737 heartbeat IPC: 0.603069 cumulative IPC: 0.488323 (Simulation time: 0 hr 28 min 56 sec) 
select_counter is 643
Heartbeat CPU 0 instructions: 57000000 cycles: 102003945 heartbeat IPC: 0.584382 cumulative IPC: 0.490037 (Simulation time: 0 hr 29 min 27 sec) 
select_counter is 638
Heartbeat CPU 0 instructions: 58000002 cycles: 103744507 heartbeat IPC: 0.574528 cumulative IPC: 0.491543 (Simulation time: 0 hr 29 min 57 sec) 
select_counter is 656
Heartbeat CPU 0 instructions: 59000001 cycles: 105485846 heartbeat IPC: 0.57427 cumulative IPC: 0.492992 (Simulation time: 0 hr 30 min 25 sec) 
select_counter is 676
Heartbeat CPU 0 instructions: 60000000 cycles: 108883255 heartbeat IPC: 0.294342 cumulative IPC: 0.486426 (Simulation time: 0 hr 30 min 57 sec) 
select_counter is 583
Heartbeat CPU 0 instructions: 61000001 cycles: 113913237 heartbeat IPC: 0.198808 cumulative IPC: 0.473009 (Simulation time: 0 hr 31 min 34 sec) 
select_counter is 430
Heartbeat CPU 0 instructions: 62000000 cycles: 115650554 heartbeat IPC: 0.5756 cumulative IPC: 0.474635 (Simulation time: 0 hr 32 min 2 sec) 
select_counter is 413
Heartbeat CPU 0 instructions: 63000000 cycles: 117391457 heartbeat IPC: 0.574415 cumulative IPC: 0.476196 (Simulation time: 0 hr 32 min 31 sec) 
select_counter is 400
Heartbeat CPU 0 instructions: 64000000 cycles: 119125588 heartbeat IPC: 0.576658 cumulative IPC: 0.477737 (Simulation time: 0 hr 33 min 6 sec) 
select_counter is 390
Heartbeat CPU 0 instructions: 65000002 cycles: 120786641 heartbeat IPC: 0.602029 cumulative IPC: 0.479537 (Simulation time: 0 hr 33 min 39 sec) 
select_counter is 396
Heartbeat CPU 0 instructions: 66000003 cycles: 122491906 heartbeat IPC: 0.58642 cumulative IPC: 0.481103 (Simulation time: 0 hr 34 min 15 sec) 
select_counter is 383
Heartbeat CPU 0 instructions: 67000001 cycles: 124229687 heartbeat IPC: 0.575445 cumulative IPC: 0.482491 (Simulation time: 0 hr 34 min 43 sec) 
select_counter is 409
Heartbeat CPU 0 instructions: 68000000 cycles: 125969077 heartbeat IPC: 0.574914 cumulative IPC: 0.483832 (Simulation time: 0 hr 35 min 15 sec) 
select_counter is 425
Heartbeat CPU 0 instructions: 69000003 cycles: 127685331 heartbeat IPC: 0.582666 cumulative IPC: 0.485227 (Simulation time: 0 hr 35 min 48 sec) 
select_counter is 436
Heartbeat CPU 0 instructions: 70000000 cycles: 129337697 heartbeat IPC: 0.605191 cumulative IPC: 0.486836 (Simulation time: 0 hr 36 min 20 sec) 
select_counter is 441
Heartbeat CPU 0 instructions: 71000002 cycles: 131065926 heartbeat IPC: 0.578628 cumulative IPC: 0.488105 (Simulation time: 0 hr 36 min 50 sec) 
select_counter is 461
Heartbeat CPU 0 instructions: 72000000 cycles: 132803886 heartbeat IPC: 0.575386 cumulative IPC: 0.489302 (Simulation time: 0 hr 37 min 21 sec) 
select_counter is 484
Heartbeat CPU 0 instructions: 73000001 cycles: 135272281 heartbeat IPC: 0.405122 cumulative IPC: 0.487694 (Simulation time: 0 hr 37 min 53 sec) 
select_counter is 459
Heartbeat CPU 0 instructions: 74000002 cycles: 141196194 heartbeat IPC: 0.168808 cumulative IPC: 0.473711 (Simulation time: 0 hr 38 min 39 sec) 
select_counter is 160
Heartbeat CPU 0 instructions: 75000002 cycles: 142894511 heartbeat IPC: 0.588818 cumulative IPC: 0.47514 (Simulation time: 0 hr 39 min 12 sec) 
select_counter is 168
Heartbeat CPU 0 instructions: 76000000 cycles: 144633488 heartbeat IPC: 0.57505 cumulative IPC: 0.476394 (Simulation time: 0 hr 39 min 37 sec) 
select_counter is 162
Heartbeat CPU 0 instructions: 77000001 cycles: 146371174 heartbeat IPC: 0.575479 cumulative IPC: 0.477622 (Simulation time: 0 hr 40 min 4 sec) 
select_counter is 155
Heartbeat CPU 0 instructions: 78000000 cycles: 148092813 heartbeat IPC: 0.580841 cumulative IPC: 0.478873 (Simulation time: 0 hr 40 min 31 sec) 
select_counter is 142
Heartbeat CPU 0 instructions: 79000003 cycles: 149739420 heartbeat IPC: 0.607311 cumulative IPC: 0.480345 (Simulation time: 0 hr 40 min 59 sec) 
select_counter is 134
Heartbeat CPU 0 instructions: 80000000 cycles: 151469464 heartbeat IPC: 0.578018 cumulative IPC: 0.481508 (Simulation time: 0 hr 41 min 27 sec) 
select_counter is 138
Heartbeat CPU 0 instructions: 81000002 cycles: 153208567 heartbeat IPC: 0.57501 cumulative IPC: 0.482613 (Simulation time: 0 hr 41 min 54 sec) 
select_counter is 128
Heartbeat CPU 0 instructions: 82000000 cycles: 154946955 heartbeat IPC: 0.575244 cumulative IPC: 0.483695 (Simulation time: 0 hr 42 min 21 sec) 
select_counter is 143
Heartbeat CPU 0 instructions: 83000000 cycles: 156632608 heartbeat IPC: 0.593242 cumulative IPC: 0.484922 (Simulation time: 0 hr 42 min 46 sec) 
select_counter is 139
Heartbeat CPU 0 instructions: 84000000 cycles: 158307401 heartbeat IPC: 0.597089 cumulative IPC: 0.486156 (Simulation time: 0 hr 43 min 10 sec) 
select_counter is 144
Heartbeat CPU 0 instructions: 85000003 cycles: 160067560 heartbeat IPC: 0.568132 cumulative IPC: 0.487093 (Simulation time: 0 hr 43 min 33 sec) 
select_counter is 157
Heartbeat CPU 0 instructions: 86000000 cycles: 161806091 heartbeat IPC: 0.575197 cumulative IPC: 0.488076 (Simulation time: 0 hr 43 min 56 sec) 
select_counter is 183
Heartbeat CPU 0 instructions: 87000001 cycles: 168554265 heartbeat IPC: 0.148188 cumulative IPC: 0.473959 (Simulation time: 0 hr 44 min 26 sec) 
select_counter is 19
Heartbeat CPU 0 instructions: 88000000 cycles: 170198312 heartbeat IPC: 0.608254 cumulative IPC: 0.475304 (Simulation time: 0 hr 44 min 45 sec) 
select_counter is 38
Heartbeat CPU 0 instructions: 89000002 cycles: 171925750 heartbeat IPC: 0.578893 cumulative IPC: 0.476383 (Simulation time: 0 hr 45 min 4 sec) 
select_counter is 32
Heartbeat CPU 0 instructions: 90000001 cycles: 173690633 heartbeat IPC: 0.566609 cumulative IPC: 0.477333 (Simulation time: 0 hr 45 min 23 sec) 
select_counter is 21
Heartbeat CPU 0 instructions: 91000002 cycles: 175428001 heartbeat IPC: 0.575584 cumulative IPC: 0.478341 (Simulation time: 0 hr 45 min 42 sec) 
select_counter is 18
Heartbeat CPU 0 instructions: 92000000 cycles: 177121673 heartbeat IPC: 0.590432 cumulative IPC: 0.479451 (Simulation time: 0 hr 46 min 2 sec) 
select_counter is 16
Heartbeat CPU 0 instructions: 93000002 cycles: 178791220 heartbeat IPC: 0.598966 cumulative IPC: 0.480607 (Simulation time: 0 hr 46 min 19 sec) 
select_counter is 1020
Heartbeat CPU 0 instructions: 94000002 cycles: 180526105 heartbeat IPC: 0.576407 cumulative IPC: 0.481559 (Simulation time: 0 hr 46 min 37 sec) 
select_counter is 1019
Heartbeat CPU 0 instructions: 95000003 cycles: 182265298 heartbeat IPC: 0.57498 cumulative IPC: 0.482482 (Simulation time: 0 hr 46 min 54 sec) 
select_counter is 1020
Heartbeat CPU 0 instructions: 96000000 cycles: 183999298 heartbeat IPC: 0.5767 cumulative IPC: 0.4834 (Simulation time: 0 hr 47 min 12 sec) 
select_counter is 1021
Heartbeat CPU 0 instructions: 97000003 cycles: 185661215 heartbeat IPC: 0.601717 cumulative IPC: 0.484495 (Simulation time: 0 hr 47 min 30 sec) 
select_counter is 1018
Heartbeat CPU 0 instructions: 98000003 cycles: 187362387 heartbeat IPC: 0.58783 cumulative IPC: 0.485465 (Simulation time: 0 hr 47 min 46 sec) 
select_counter is 1017
Heartbeat CPU 0 instructions: 99000000 cycles: 189099764 heartbeat IPC: 0.575579 cumulative IPC: 0.48632 (Simulation time: 0 hr 48 min 1 sec) 
select_counter is 1020
Heartbeat CPU 0 instructions: 100000000 cycles: 195854374 heartbeat IPC: 0.148047 cumulative IPC: 0.474279 (Simulation time: 0 hr 48 min 19 sec) 
select_counter is 905
Heartbeat CPU 0 instructions: 101000000 cycles: 197551659 heartbeat IPC: 0.589176 cumulative IPC: 0.475298 (Simulation time: 0 hr 48 min 33 sec) 
select_counter is 916
Heartbeat CPU 0 instructions: 102000003 cycles: 199219470 heartbeat IPC: 0.59959 cumulative IPC: 0.476371 (Simulation time: 0 hr 48 min 47 sec) 
select_counter is 915
Heartbeat CPU 0 instructions: 103000000 cycles: 200952426 heartbeat IPC: 0.577047 cumulative IPC: 0.477267 (Simulation time: 0 hr 49 min 0 sec) 
select_counter is 908
Heartbeat CPU 0 instructions: 104000000 cycles: 202691886 heartbeat IPC: 0.574891 cumulative IPC: 0.47813 (Simulation time: 0 hr 49 min 12 sec) 
select_counter is 903
Heartbeat CPU 0 instructions: 105000001 cycles: 204426406 heartbeat IPC: 0.576529 cumulative IPC: 0.478991 (Simulation time: 0 hr 49 min 23 sec) 
select_counter is 900
Heartbeat CPU 0 instructions: 106000000 cycles: 206093890 heartbeat IPC: 0.599705 cumulative IPC: 0.479997 (Simulation time: 0 hr 49 min 35 sec) 
select_counter is 905
Heartbeat CPU 0 instructions: 107000001 cycles: 207790605 heartbeat IPC: 0.589375 cumulative IPC: 0.480917 (Simulation time: 0 hr 49 min 46 sec) 
select_counter is 906
Heartbeat CPU 0 instructions: 108000000 cycles: 209528949 heartbeat IPC: 0.57526 cumulative IPC: 0.481724 (Simulation time: 0 hr 49 min 57 sec) 
select_counter is 920
Heartbeat CPU 0 instructions: 109000002 cycles: 211267818 heartbeat IPC: 0.575088 cumulative IPC: 0.482515 (Simulation time: 0 hr 50 min 7 sec) 
select_counter is 922
Heartbeat CPU 0 instructions: 110000001 cycles: 212993728 heartbeat IPC: 0.579404 cumulative IPC: 0.483323 (Simulation time: 0 hr 50 min 17 sec) 
select_counter is 932
Finished CPU 0 instructions: 100000003 cycles: 206900938 cummulative IPC: 0.483323 (Simulation time: 0 hr 50 min 17 sec) 

ChampSim completed all CPUs

Region of Interest Statistics

CPU 0 cummulative IPC: 0.483323 instructions: 100000003 cycles: 206900938
LLC TOTAL     ACCESS:    1110610  HIT:     332450  MISS:     778160
LLC LOAD      ACCESS:      26052  HIT:       2835  MISS:      23217
LLC RFO       ACCESS:     245174  HIT:      34063  MISS:     211111
LLC PREFETCH  ACCESS:     593873  HIT:     157482  MISS:     436391
LLC WRITEBACK ACCESS:     245511  HIT:     138070  MISS:     107441
Ship samples: 
16, 39, 78, 101, 148, 179, 196, 255, 286, 302, 348, 374, 393, 447, 448, 501, 534, 553, 576, 626, 648, 680, 731, 747, 786, 826, 832, 877, 903, 931, 988, 994, 1043, 1072, 1088, 1143, 1182, 1206, 1220, 1270, 1290, 1318, 1346, 1396, 1439, 1457, 1487, 1518, 1567, 1589, 1601, 1640, 1676, 1721, 1729, 1768, 1792, 1846, 1857, 1900, 1921, 1980, 1994, 2031, 
Lime duel samples: 
9, 59, 70, 103, 140, 164, 202, 229, 284, 290, 349, 375, 414, 438, 473, 495, 539, 571, 606, 629, 644, 700, 717, 740, 797, 808, 847, 881, 905, 940, 967, 1016, 1042, 1067, 1107, 1122, 1161, 1184, 1241, 1250, 1303, 1329, 1354, 1395, 1417, 1463, 1499, 1523, 1538, 1598, 1631, 1644, 1695, 1727, 1745, 1775, 1803, 1838, 1858, 1898, 1920, 1981, 2000, 2034, 
Lime samples: 
9, 103, 202, 290, 414, 495, 606, 700, 797, 881, 967, 1067, 1161, 1250, 1354, 1463, 1538, 1644, 1745, 1838, 1920, 
Insertion Distribution: 
	LOAD 30 0 0 0 0 0 859 7155 
	RFO 8322 0 0 0 0 0 3736 53942 
	PREF 0 14369 0 0 0 0 23756 119486 
	WRITEBACK 0 0 0 0 0 0 0 48676 
Total Prefetch Downgrades: 15591
