Initialize SIGNATURE TABLE
ST_SET: 1
ST_WAY: 256
ST_TAG_BIT: 16
ST_TAG_MASK: ffff

Initialize PATTERN TABLE
PT_SET: 512
PT_WAY: 4
SIG_DELTA_BIT: 7
C_SIG_BIT: 4
C_DELTA_BIT: 4

Initialize PREFETCH FILTER
FILTER_SET: 1024

*** ChampSim Multicore Out-of-Order Simulator ***

Warmup Instructions: 50000000
Simulation Instructions: 50000000
Number of CPUs: 1
LLC sets: 2048
LLC ways: 16
Off-chip DRAM Size: 4096 MB Channels: 1 Width: 64-bit Data Rate: 3200 MT/s

CPU 0 runs /Users/gandhardeshpande/Desktop/CSE240C/HW1/ChampSim/ipc1_public/client_005.champsimtrace.xz
CPU 0 L1I next line prefetcher
Running FNL-MMA for L1I
CPU 0 L1D next line prefetcher
Heartbeat CPU 0 instructions: 10000001 cycles: 3291959 heartbeat IPC: 3.03771 cumulative IPC: 3.03771 (Simulation time: 0 hr 0 min 14 sec) 
Heartbeat CPU 0 instructions: 20000002 cycles: 6699748 heartbeat IPC: 2.93445 cumulative IPC: 2.98519 (Simulation time: 0 hr 0 min 28 sec) 
Heartbeat CPU 0 instructions: 30000001 cycles: 10393040 heartbeat IPC: 2.70761 cumulative IPC: 2.88655 (Simulation time: 0 hr 0 min 43 sec) 
Heartbeat CPU 0 instructions: 40000000 cycles: 14070893 heartbeat IPC: 2.71898 cumulative IPC: 2.84275 (Simulation time: 0 hr 0 min 58 sec) 
Heartbeat CPU 0 instructions: 50000001 cycles: 17344238 heartbeat IPC: 3.05498 cumulative IPC: 2.8828 (Simulation time: 0 hr 1 min 11 sec) 

Warmup complete CPU 0 instructions: 50000001 cycles: 17344238 (Simulation time: 0 hr 1 min 11 sec) 

Heartbeat CPU 0 instructions: 60000002 cycles: 24992687 heartbeat IPC: 1.30745 cumulative IPC: 1.30745 (Simulation time: 0 hr 1 min 23 sec) 
Heartbeat CPU 0 instructions: 70000003 cycles: 32294586 heartbeat IPC: 1.36951 cumulative IPC: 1.33776 (Simulation time: 0 hr 1 min 35 sec) 
Heartbeat CPU 0 instructions: 80000001 cycles: 39181176 heartbeat IPC: 1.4521 cumulative IPC: 1.37382 (Simulation time: 0 hr 1 min 49 sec) 
Heartbeat CPU 0 instructions: 90000002 cycles: 48676841 heartbeat IPC: 1.05311 cumulative IPC: 1.27663 (Simulation time: 0 hr 2 min 3 sec) 
Heartbeat CPU 0 instructions: 100000002 cycles: 56236287 heartbeat IPC: 1.32285 cumulative IPC: 1.28561 (Simulation time: 0 hr 2 min 14 sec) 
Finished CPU 0 instructions: 50000001 cycles: 38892049 cumulative IPC: 1.28561 (Simulation time: 0 hr 2 min 14 sec) 

ChampSim completed all CPUs

Region of Interest Statistics

CPU 0 cumulative IPC: 1.28561 instructions: 50000001 cycles: 38892049
L1D TOTAL     ACCESS:   19666528  HIT:   19130646  MISS:     535882
L1D LOAD      ACCESS:    6661014  HIT:    6489325  MISS:     171689
L1D RFO       ACCESS:    6796054  HIT:    6611627  MISS:     184427
L1D PREFETCH  ACCESS:    6209460  HIT:    6029694  MISS:     179766
L1D WRITEBACK ACCESS:          0  HIT:          0  MISS:          0
L1D PREFETCH  REQUESTED:    6684406  ISSUED:    6314015  USEFUL:      59513  USELESS:     120140
L1D AVERAGE MISS LATENCY: 92.6056 cycles
L1I TOTAL     ACCESS:   11802695  HIT:   10780218  MISS:    1022477
L1I LOAD      ACCESS:    9313892  HIT:    9122682  MISS:     191210
L1I RFO       ACCESS:          0  HIT:          0  MISS:          0
L1I PREFETCH  ACCESS:    2488803  HIT:    1657536  MISS:     831267
L1I WRITEBACK ACCESS:          0  HIT:          0  MISS:          0
L1I PREFETCH  REQUESTED:    2586590  ISSUED:    2586590  USEFUL:     569302  USELESS:     261908
L1I AVERAGE MISS LATENCY: 20.1462 cycles
L2C TOTAL     ACCESS:    2295255  HIT:    1911736  MISS:     383519
L2C LOAD      ACCESS:     317973  HIT:     230643  MISS:      87330
L2C RFO       ACCESS:     180773  HIT:      31527  MISS:     149246
L2C PREFETCH  ACCESS:    1543449  HIT:    1397455  MISS:     145994
L2C WRITEBACK ACCESS:     253060  HIT:     252111  MISS:        949
L2C PREFETCH  REQUESTED:    1558772  ISSUED:    1558210  USEFUL:      15328  USELESS:     128977
L2C AVERAGE MISS LATENCY: 128.635 cycles
LLC TOTAL     ACCESS:     928076  HIT:     628977  MISS:     299099
LLC LOAD      ACCESS:      87309  HIT:      45008  MISS:      42301
LLC RFO       ACCESS:     149243  HIT:      19143  MISS:     130100
LLC PREFETCH  ACCESS:     492294  HIT:     366450  MISS:     125844
LLC WRITEBACK ACCESS:     199230  HIT:     198376  MISS:        854
LLC PREFETCH  REQUESTED:          0  ISSUED:          0  USEFUL:      27110  USELESS:      94417
LLC AVERAGE MISS LATENCY: 169.634 cycles
Major fault: 0 Minor fault: 6084
I-Shadow cache 408 bytes
Touched + WorthPF tables 24576 bytes 
MMA filter 174 bytes 
FNL filter 272 bytes 
TOTAL PREFETCHER STORAGE SIZE: 98134 bytes
CPU 0 L1I next line prefetcher final stats
CPU 0 L1D next line prefetcher final stats

DRAM Statistics
 CHANNEL 0
 RQ ROW_BUFFER_HIT:      96542  ROW_BUFFER_MISS:     201693
 DBUS_CONGESTED:     242559
 WQ ROW_BUFFER_HIT:      51694  ROW_BUFFER_MISS:     131249  FULL:          0

 AVG_CONGESTED_CYCLE: 6

CPU 0 Branch Prediction Accuracy: 97.8666% MPKI: 3.9013 Average ROB Occupancy at Mispredict: 87.1733

Branch types
NOT_BRANCH: 40856330 81.7127%
BRANCH_DIRECT_JUMP: 484667 0.969334%
BRANCH_INDIRECT: 85086 0.170172%
BRANCH_CONDITIONAL: 6230887 12.4618%
BRANCH_DIRECT_CALL: 1028917 2.05783%
BRANCH_INDIRECT_CALL: 141825 0.28365%
BRANCH_RETURN: 1171986 2.34397%
BRANCH_OTHER: 0 0%

