Initialize SIGNATURE TABLE
ST_SET: 1
ST_WAY: 256
ST_TAG_BIT: 16
ST_TAG_MASK: ffff

Initialize PATTERN TABLE
PT_SET: 512
PT_WAY: 4
SIG_DELTA_BIT: 7
C_SIG_BIT: 4
C_DELTA_BIT: 4

Initialize PREFETCH FILTER
FILTER_SET: 1024

*** ChampSim Multicore Out-of-Order Simulator ***

Warmup Instructions: 50000000
Simulation Instructions: 50000000
Number of CPUs: 1
LLC sets: 2048
LLC ways: 16
Off-chip DRAM Size: 4096 MB Channels: 1 Width: 64-bit Data Rate: 3200 MT/s

CPU 0 runs /Users/gandhardeshpande/Desktop/CSE240C/HW1/ChampSim/ipc1_public/server_025.champsimtrace.xz
CPU 0 L1I next line prefetcher
Running FNL-MMA for L1I
CPU 0 L1D next line prefetcher
Heartbeat CPU 0 instructions: 10000003 cycles: 3526385 heartbeat IPC: 2.83577 cumulative IPC: 2.83577 (Simulation time: 0 hr 0 min 15 sec) 
Heartbeat CPU 0 instructions: 20000000 cycles: 7059909 heartbeat IPC: 2.83004 cumulative IPC: 2.8329 (Simulation time: 0 hr 0 min 30 sec) 
Heartbeat CPU 0 instructions: 30000001 cycles: 10585221 heartbeat IPC: 2.83663 cumulative IPC: 2.83414 (Simulation time: 0 hr 0 min 44 sec) 
Heartbeat CPU 0 instructions: 40000003 cycles: 14116635 heartbeat IPC: 2.83173 cumulative IPC: 2.83354 (Simulation time: 0 hr 0 min 59 sec) 
Heartbeat CPU 0 instructions: 50000001 cycles: 17646197 heartbeat IPC: 2.83321 cumulative IPC: 2.83347 (Simulation time: 0 hr 1 min 14 sec) 

Warmup complete CPU 0 instructions: 50000001 cycles: 17646197 (Simulation time: 0 hr 1 min 14 sec) 

Heartbeat CPU 0 instructions: 60000002 cycles: 24542357 heartbeat IPC: 1.45008 cumulative IPC: 1.45008 (Simulation time: 0 hr 1 min 29 sec) 
Heartbeat CPU 0 instructions: 70000000 cycles: 31569144 heartbeat IPC: 1.42313 cumulative IPC: 1.43648 (Simulation time: 0 hr 1 min 44 sec) 
Heartbeat CPU 0 instructions: 80000002 cycles: 38498985 heartbeat IPC: 1.44303 cumulative IPC: 1.43866 (Simulation time: 0 hr 2 min 0 sec) 
Heartbeat CPU 0 instructions: 90000001 cycles: 45072883 heartbeat IPC: 1.52117 cumulative IPC: 1.45843 (Simulation time: 0 hr 2 min 15 sec) 
Heartbeat CPU 0 instructions: 100000003 cycles: 51334694 heartbeat IPC: 1.59698 cumulative IPC: 1.48419 (Simulation time: 0 hr 2 min 30 sec) 
Finished CPU 0 instructions: 50000002 cycles: 33688497 cumulative IPC: 1.48419 (Simulation time: 0 hr 2 min 30 sec) 

ChampSim completed all CPUs

Region of Interest Statistics

CPU 0 cumulative IPC: 1.48419 instructions: 50000002 cycles: 33688497
L1D TOTAL     ACCESS:   20005875  HIT:   18580546  MISS:    1425329
L1D LOAD      ACCESS:    6967204  HIT:    6348072  MISS:     619132
L1D RFO       ACCESS:    6384068  HIT:    6136238  MISS:     247830
L1D PREFETCH  ACCESS:    6654603  HIT:    6096236  MISS:     558367
L1D WRITEBACK ACCESS:          0  HIT:          0  MISS:          0
L1D PREFETCH  REQUESTED:    7007740  ISSUED:    6833752  USEFUL:     131104  USELESS:     427258
L1D AVERAGE MISS LATENCY: 23.9207 cycles
L1I TOTAL     ACCESS:   13776585  HIT:   10539075  MISS:    3237510
L1I LOAD      ACCESS:    9491469  HIT:    9357436  MISS:     134033
L1I RFO       ACCESS:          0  HIT:          0  MISS:          0
L1I PREFETCH  ACCESS:    4285116  HIT:    1181639  MISS:    3103477
L1I WRITEBACK ACCESS:          0  HIT:          0  MISS:          0
L1I PREFETCH  REQUESTED:    4492607  ISSUED:    4492502  USEFUL:    2373377  USELESS:     730095
L1I AVERAGE MISS LATENCY: 18.6514 cycles
L2C TOTAL     ACCESS:    6255903  HIT:    5438685  MISS:     817218
L2C LOAD      ACCESS:     623099  HIT:     490354  MISS:     132745
L2C RFO       ACCESS:     246483  HIT:     168980  MISS:      77503
L2C PREFETCH  ACCESS:    4889605  HIT:    4287308  MISS:     602297
L2C WRITEBACK ACCESS:     496716  HIT:     492043  MISS:       4673
L2C PREFETCH  REQUESTED:    5039424  ISSUED:    5030755  USEFUL:      12295  USELESS:     589718
L2C AVERAGE MISS LATENCY: 37.7943 cycles
LLC TOTAL     ACCESS:    2252018  HIT:    2220421  MISS:      31597
LLC LOAD      ACCESS:     132581  HIT:     129185  MISS:       3396
LLC RFO       ACCESS:      77484  HIT:      66659  MISS:      10825
LLC PREFETCH  ACCESS:    1905631  HIT:    1888493  MISS:      17138
LLC WRITEBACK ACCESS:     136322  HIT:     136084  MISS:        238
LLC PREFETCH  REQUESTED:          0  ISSUED:          0  USEFUL:       1096  USELESS:      14750
LLC AVERAGE MISS LATENCY: 178.107 cycles
Major fault: 0 Minor fault: 2458
I-Shadow cache 408 bytes
Touched + WorthPF tables 24576 bytes 
MMA filter 174 bytes 
FNL filter 272 bytes 
TOTAL PREFETCHER STORAGE SIZE: 98134 bytes
CPU 0 L1I next line prefetcher final stats
CPU 0 L1D next line prefetcher final stats

DRAM Statistics
 CHANNEL 0
 RQ ROW_BUFFER_HIT:       9679  ROW_BUFFER_MISS:      21673
 DBUS_CONGESTED:      19503
 WQ ROW_BUFFER_HIT:       1408  ROW_BUFFER_MISS:      12228  FULL:          0

 AVG_CONGESTED_CYCLE: 6

CPU 0 Branch Prediction Accuracy: 99.8142% MPKI: 0.34676 Average ROB Occupancy at Mispredict: 198.404

Branch types
NOT_BRANCH: 40668885 81.3378%
BRANCH_DIRECT_JUMP: 531700 1.0634%
BRANCH_INDIRECT: 199025 0.39805%
BRANCH_CONDITIONAL: 6211490 12.423%
BRANCH_DIRECT_CALL: 1010911 2.02182%
BRANCH_INDIRECT_CALL: 183501 0.367002%
BRANCH_RETURN: 1194415 2.38883%
BRANCH_OTHER: 0 0%

