Initialize SIGNATURE TABLE
ST_SET: 1
ST_WAY: 256
ST_TAG_BIT: 16
ST_TAG_MASK: ffff

Initialize PATTERN TABLE
PT_SET: 512
PT_WAY: 4
SIG_DELTA_BIT: 7
C_SIG_BIT: 4
C_DELTA_BIT: 4

Initialize PREFETCH FILTER
FILTER_SET: 1024

*** ChampSim Multicore Out-of-Order Simulator ***

Warmup Instructions: 50000000
Simulation Instructions: 50000000
Number of CPUs: 1
LLC sets: 2048
LLC ways: 16
Off-chip DRAM Size: 4096 MB Channels: 1 Width: 64-bit Data Rate: 3200 MT/s

CPU 0 runs /Users/gandhardeshpande/Desktop/CSE240C/HW1/ChampSim/ipc1_public/server_032.champsimtrace.xz
CPU 0 L1I next line prefetcher
Running FNL-MMA for L1I
CPU 0 L1D next line prefetcher
Heartbeat CPU 0 instructions: 10000002 cycles: 3521329 heartbeat IPC: 2.83984 cumulative IPC: 2.83984 (Simulation time: 0 hr 0 min 15 sec) 
Heartbeat CPU 0 instructions: 20000003 cycles: 7043544 heartbeat IPC: 2.83912 cumulative IPC: 2.83948 (Simulation time: 0 hr 0 min 30 sec) 
Heartbeat CPU 0 instructions: 30000000 cycles: 10565335 heartbeat IPC: 2.83946 cumulative IPC: 2.83947 (Simulation time: 0 hr 0 min 45 sec) 
Heartbeat CPU 0 instructions: 40000003 cycles: 14088060 heartbeat IPC: 2.83871 cumulative IPC: 2.83928 (Simulation time: 0 hr 1 min 0 sec) 
Heartbeat CPU 0 instructions: 50000000 cycles: 17610482 heartbeat IPC: 2.83895 cumulative IPC: 2.83922 (Simulation time: 0 hr 1 min 15 sec) 

Warmup complete CPU 0 instructions: 50000004 cycles: 17610483 (Simulation time: 0 hr 1 min 15 sec) 

Heartbeat CPU 0 instructions: 60000002 cycles: 24423424 heartbeat IPC: 1.4678 cumulative IPC: 1.46779 (Simulation time: 0 hr 1 min 31 sec) 
Heartbeat CPU 0 instructions: 70000000 cycles: 31250417 heartbeat IPC: 1.46477 cumulative IPC: 1.46628 (Simulation time: 0 hr 1 min 46 sec) 
*** Reached end of trace for Core: 0 Repeating trace: /Users/gandhardeshpande/Desktop/CSE240C/HW1/ChampSim/ipc1_public/server_032.champsimtrace.xz
Heartbeat CPU 0 instructions: 80000003 cycles: 38077053 heartbeat IPC: 1.46485 cumulative IPC: 1.4658 (Simulation time: 0 hr 2 min 2 sec) 
Heartbeat CPU 0 instructions: 90000002 cycles: 44873877 heartbeat IPC: 1.47128 cumulative IPC: 1.46717 (Simulation time: 0 hr 2 min 18 sec) 
Heartbeat CPU 0 instructions: 100000001 cycles: 51679312 heartbeat IPC: 1.46941 cumulative IPC: 1.46762 (Simulation time: 0 hr 2 min 34 sec) 
Finished CPU 0 instructions: 50000002 cycles: 34068831 cumulative IPC: 1.46762 (Simulation time: 0 hr 2 min 34 sec) 

ChampSim completed all CPUs

Region of Interest Statistics

CPU 0 cumulative IPC: 1.46762 instructions: 50000002 cycles: 34068831
L1D TOTAL     ACCESS:   19795895  HIT:   17967664  MISS:    1828231
L1D LOAD      ACCESS:    6767718  HIT:    5972981  MISS:     794737
L1D RFO       ACCESS:    6540792  HIT:    6245779  MISS:     295013
L1D PREFETCH  ACCESS:    6487385  HIT:    5748904  MISS:     738481
L1D WRITEBACK ACCESS:          0  HIT:          0  MISS:          0
L1D PREFETCH  REQUESTED:    6818165  ISSUED:    6679713  USEFUL:     168848  USELESS:     569632
L1D AVERAGE MISS LATENCY: 19.7868 cycles
L1I TOTAL     ACCESS:   14866225  HIT:   11020994  MISS:    3845231
L1I LOAD      ACCESS:    9708968  HIT:    9570826  MISS:     138142
L1I RFO       ACCESS:          0  HIT:          0  MISS:          0
L1I PREFETCH  ACCESS:    5157257  HIT:    1450168  MISS:    3707089
L1I WRITEBACK ACCESS:          0  HIT:          0  MISS:          0
L1I PREFETCH  REQUESTED:    5412660  ISSUED:    5412660  USEFUL:    3087178  USELESS:     619914
L1I AVERAGE MISS LATENCY: 17.3069 cycles
L2C TOTAL     ACCESS:    7819846  HIT:    7091219  MISS:     728627
L2C LOAD      ACCESS:     779292  HIT:     658952  MISS:     120340
L2C RFO       ACCESS:     292638  HIT:     239780  MISS:      52858
L2C PREFETCH  ACCESS:    6111689  HIT:    5560760  MISS:     550929
L2C WRITEBACK ACCESS:     636227  HIT:     631727  MISS:       4500
L2C PREFETCH  REQUESTED:    6598877  ISSUED:    6582393  USEFUL:       8947  USELESS:     541856
L2C AVERAGE MISS LATENCY: 33.5232 cycles
LLC TOTAL     ACCESS:    2348681  HIT:    2342384  MISS:       6297
LLC LOAD      ACCESS:     120334  HIT:     119822  MISS:        512
LLC RFO       ACCESS:      52712  HIT:      52712  MISS:          0
LLC PREFETCH  ACCESS:    2067300  HIT:    2061559  MISS:       5741
LLC WRITEBACK ACCESS:     108335  HIT:     108291  MISS:         44
LLC PREFETCH  REQUESTED:          0  ISSUED:          0  USEFUL:        393  USELESS:       2339
LLC AVERAGE MISS LATENCY: 146.677 cycles
Major fault: 0 Minor fault: 1179
I-Shadow cache 408 bytes
Touched + WorthPF tables 24576 bytes 
MMA filter 174 bytes 
FNL filter 272 bytes 
TOTAL PREFETCHER STORAGE SIZE: 98134 bytes
CPU 0 L1I next line prefetcher final stats
CPU 0 L1D next line prefetcher final stats

DRAM Statistics
 CHANNEL 0
 RQ ROW_BUFFER_HIT:       1669  ROW_BUFFER_MISS:       4584
 DBUS_CONGESTED:        799
 WQ ROW_BUFFER_HIT:          0  ROW_BUFFER_MISS:          8  FULL:          0

 AVG_CONGESTED_CYCLE: 4

CPU 0 Branch Prediction Accuracy: 99.8762% MPKI: 0.2296 Average ROB Occupancy at Mispredict: 192.168

Branch types
NOT_BRANCH: 40726110 81.4522%
BRANCH_DIRECT_JUMP: 508373 1.01675%
BRANCH_INDIRECT: 180051 0.360102%
BRANCH_CONDITIONAL: 5999654 11.9993%
BRANCH_DIRECT_CALL: 1086739 2.17348%
BRANCH_INDIRECT_CALL: 206109 0.412218%
BRANCH_RETURN: 1292836 2.58567%
BRANCH_OTHER: 0 0%

