Initialize SIGNATURE TABLE
ST_SET: 1
ST_WAY: 256
ST_TAG_BIT: 16
ST_TAG_MASK: ffff

Initialize PATTERN TABLE
PT_SET: 512
PT_WAY: 4
SIG_DELTA_BIT: 7
C_SIG_BIT: 4
C_DELTA_BIT: 4

Initialize PREFETCH FILTER
FILTER_SET: 1024

*** ChampSim Multicore Out-of-Order Simulator ***

Warmup Instructions: 50000000
Simulation Instructions: 50000000
Number of CPUs: 1
LLC sets: 2048
LLC ways: 16
Off-chip DRAM Size: 4096 MB Channels: 1 Width: 64-bit Data Rate: 3200 MT/s

CPU 0 runs /Users/gandhardeshpande/Desktop/CSE240C/HW1/ChampSim/ipc1_public/server_025.champsimtrace.xz
CPU 0 L1I next line prefetcher
Running FNL-MMA for L1I
CPU 0 L1D next line prefetcher
Heartbeat CPU 0 instructions: 10000003 cycles: 3528662 heartbeat IPC: 2.83394 cumulative IPC: 2.83394 (Simulation time: 0 hr 0 min 14 sec) 
Heartbeat CPU 0 instructions: 20000000 cycles: 7064146 heartbeat IPC: 2.82847 cumulative IPC: 2.8312 (Simulation time: 0 hr 0 min 29 sec) 
Heartbeat CPU 0 instructions: 30000001 cycles: 10591554 heartbeat IPC: 2.83494 cumulative IPC: 2.83245 (Simulation time: 0 hr 0 min 44 sec) 
Heartbeat CPU 0 instructions: 40000003 cycles: 14125425 heartbeat IPC: 2.82976 cumulative IPC: 2.83177 (Simulation time: 0 hr 0 min 59 sec) 
Heartbeat CPU 0 instructions: 50000001 cycles: 17657091 heartbeat IPC: 2.83152 cumulative IPC: 2.83172 (Simulation time: 0 hr 1 min 14 sec) 

Warmup complete CPU 0 instructions: 50000001 cycles: 17657091 (Simulation time: 0 hr 1 min 14 sec) 

Heartbeat CPU 0 instructions: 60000002 cycles: 24559374 heartbeat IPC: 1.4488 cumulative IPC: 1.4488 (Simulation time: 0 hr 1 min 29 sec) 
Heartbeat CPU 0 instructions: 70000000 cycles: 31581512 heartbeat IPC: 1.42407 cumulative IPC: 1.43633 (Simulation time: 0 hr 1 min 44 sec) 
Heartbeat CPU 0 instructions: 80000002 cycles: 38508051 heartbeat IPC: 1.44372 cumulative IPC: 1.43878 (Simulation time: 0 hr 1 min 59 sec) 
Heartbeat CPU 0 instructions: 90000001 cycles: 45082383 heartbeat IPC: 1.52107 cumulative IPC: 1.45851 (Simulation time: 0 hr 2 min 15 sec) 
Heartbeat CPU 0 instructions: 100000003 cycles: 51345529 heartbeat IPC: 1.59664 cumulative IPC: 1.48419 (Simulation time: 0 hr 2 min 29 sec) 
Finished CPU 0 instructions: 50000002 cycles: 33688438 cumulative IPC: 1.48419 (Simulation time: 0 hr 2 min 29 sec) 

ChampSim completed all CPUs

Region of Interest Statistics

CPU 0 cumulative IPC: 1.48419 instructions: 50000002 cycles: 33688438
L1D TOTAL     ACCESS:   20011113  HIT:   18585822  MISS:    1425291
L1D LOAD      ACCESS:    6970634  HIT:    6351444  MISS:     619190
L1D RFO       ACCESS:    6382224  HIT:    6134359  MISS:     247865
L1D PREFETCH  ACCESS:    6658255  HIT:    6100019  MISS:     558236
L1D WRITEBACK ACCESS:          0  HIT:          0  MISS:          0
L1D PREFETCH  REQUESTED:    7011170  ISSUED:    6837859  USEFUL:     130981  USELESS:     427247
L1D AVERAGE MISS LATENCY: 24.0091 cycles
L1I TOTAL     ACCESS:   14018428  HIT:   10667226  MISS:    3351202
L1I LOAD      ACCESS:    9452865  HIT:    9284490  MISS:     168375
L1I RFO       ACCESS:          0  HIT:          0  MISS:          0
L1I PREFETCH  ACCESS:    4565563  HIT:    1382736  MISS:    3182827
L1I WRITEBACK ACCESS:          0  HIT:          0  MISS:          0
L1I PREFETCH  REQUESTED:    4853390  ISSUED:    4851797  USEFUL:    2352475  USELESS:     830358
L1I AVERAGE MISS LATENCY: 18.3645 cycles
L2C TOTAL     ACCESS:    6346428  HIT:    5520659  MISS:     825769
L2C LOAD      ACCESS:     628413  HIT:     494770  MISS:     133643
L2C RFO       ACCESS:     246472  HIT:     168230  MISS:      78242
L2C PREFETCH  ACCESS:    4974825  HIT:    4365721  MISS:     609104
L2C WRITEBACK ACCESS:     496718  HIT:     491938  MISS:       4780
L2C PREFETCH  REQUESTED:    5814896  ISSUED:    5800338  USEFUL:      12288  USELESS:     596493
L2C AVERAGE MISS LATENCY: 38.2112 cycles
LLC TOTAL     ACCESS:    2367960  HIT:    2336666  MISS:      31294
LLC LOAD      ACCESS:     133522  HIT:     130134  MISS:       3388
LLC RFO       ACCESS:      78162  HIT:      67372  MISS:      10790
LLC PREFETCH  ACCESS:    2018866  HIT:    2001966  MISS:      16900
LLC WRITEBACK ACCESS:     137410  HIT:     137194  MISS:        216
LLC PREFETCH  REQUESTED:          0  ISSUED:          0  USEFUL:       1197  USELESS:      14664
LLC AVERAGE MISS LATENCY: 179.566 cycles
Major fault: 0 Minor fault: 2458
I-Shadow cache 408 bytes
Touched + WorthPF tables 24576 bytes 
MMA filter 174 bytes 
FNL filter 272 bytes 
TOTAL PREFETCHER STORAGE SIZE: 98134 bytes
CPU 0 L1I next line prefetcher final stats
CPU 0 L1D next line prefetcher final stats

DRAM Statistics
 CHANNEL 0
 RQ ROW_BUFFER_HIT:       9595  ROW_BUFFER_MISS:      21475
 DBUS_CONGESTED:      19553
 WQ ROW_BUFFER_HIT:       1332  ROW_BUFFER_MISS:      12107  FULL:          0

 AVG_CONGESTED_CYCLE: 6

CPU 0 Branch Prediction Accuracy: 99.8142% MPKI: 0.34676 Average ROB Occupancy at Mispredict: 198.011

Branch types
NOT_BRANCH: 40668868 81.3377%
BRANCH_DIRECT_JUMP: 531700 1.0634%
BRANCH_INDIRECT: 199025 0.39805%
BRANCH_CONDITIONAL: 6211490 12.423%
BRANCH_DIRECT_CALL: 1010910 2.02182%
BRANCH_INDIRECT_CALL: 183501 0.367002%
BRANCH_RETURN: 1194415 2.38883%
BRANCH_OTHER: 0 0%

