Initialize SIGNATURE TABLE
ST_SET: 1
ST_WAY: 256
ST_TAG_BIT: 16
ST_TAG_MASK: ffff

Initialize PATTERN TABLE
PT_SET: 512
PT_WAY: 4
SIG_DELTA_BIT: 7
C_SIG_BIT: 4
C_DELTA_BIT: 4

Initialize PREFETCH FILTER
FILTER_SET: 1024

*** ChampSim Multicore Out-of-Order Simulator ***

Warmup Instructions: 50000000
Simulation Instructions: 50000000
Number of CPUs: 1
LLC sets: 2048
LLC ways: 16
Off-chip DRAM Size: 4096 MB Channels: 1 Width: 64-bit Data Rate: 3200 MT/s

CPU 0 runs /Users/gandhardeshpande/Desktop/CSE240C/HW1/ChampSim/ipc1_public/server_038.champsimtrace.xz
CPU 0 L1I next line prefetcher
Running FNL-MMA for L1I
CPU 0 L1D next line prefetcher
Heartbeat CPU 0 instructions: 10000001 cycles: 3320480 heartbeat IPC: 3.01161 cumulative IPC: 3.01161 (Simulation time: 0 hr 0 min 15 sec) 
Heartbeat CPU 0 instructions: 20000003 cycles: 6643954 heartbeat IPC: 3.0089 cumulative IPC: 3.01026 (Simulation time: 0 hr 0 min 29 sec) 
Heartbeat CPU 0 instructions: 30000003 cycles: 9963642 heartbeat IPC: 3.01233 cumulative IPC: 3.01095 (Simulation time: 0 hr 0 min 44 sec) 
Heartbeat CPU 0 instructions: 40000001 cycles: 13287466 heartbeat IPC: 3.00858 cumulative IPC: 3.01036 (Simulation time: 0 hr 0 min 59 sec) 
Heartbeat CPU 0 instructions: 50000001 cycles: 16609471 heartbeat IPC: 3.01023 cumulative IPC: 3.01033 (Simulation time: 0 hr 1 min 14 sec) 

Warmup complete CPU 0 instructions: 50000001 cycles: 16609471 (Simulation time: 0 hr 1 min 14 sec) 

Heartbeat CPU 0 instructions: 60000002 cycles: 23034204 heartbeat IPC: 1.55649 cumulative IPC: 1.55649 (Simulation time: 0 hr 1 min 30 sec) 
Heartbeat CPU 0 instructions: 70000001 cycles: 29423751 heartbeat IPC: 1.56506 cumulative IPC: 1.56076 (Simulation time: 0 hr 1 min 46 sec) 
Heartbeat CPU 0 instructions: 80000000 cycles: 35822075 heartbeat IPC: 1.56291 cumulative IPC: 1.56147 (Simulation time: 0 hr 2 min 1 sec) 
Heartbeat CPU 0 instructions: 90000001 cycles: 42230380 heartbeat IPC: 1.56048 cumulative IPC: 1.56122 (Simulation time: 0 hr 2 min 17 sec) 
*** Reached end of trace for Core: 0 Repeating trace: /Users/gandhardeshpande/Desktop/CSE240C/HW1/ChampSim/ipc1_public/server_038.champsimtrace.xz
Heartbeat CPU 0 instructions: 100000002 cycles: 48646517 heartbeat IPC: 1.55857 cumulative IPC: 1.56069 (Simulation time: 0 hr 2 min 33 sec) 
Finished CPU 0 instructions: 50000001 cycles: 32037046 cumulative IPC: 1.56069 (Simulation time: 0 hr 2 min 33 sec) 

ChampSim completed all CPUs

Region of Interest Statistics

CPU 0 cumulative IPC: 1.56069 instructions: 50000001 cycles: 32037046
L1D TOTAL     ACCESS:   18691198  HIT:   17708846  MISS:     982352
L1D LOAD      ACCESS:    6358878  HIT:    5865569  MISS:     493309
L1D RFO       ACCESS:    6210994  HIT:    6146756  MISS:      64238
L1D PREFETCH  ACCESS:    6121326  HIT:    5696521  MISS:     424805
L1D WRITEBACK ACCESS:          0  HIT:          0  MISS:          0
L1D PREFETCH  REQUESTED:    6395500  ISSUED:    6242789  USEFUL:     118073  USELESS:     306735
L1D AVERAGE MISS LATENCY: 29.1813 cycles
L1I TOTAL     ACCESS:   15809073  HIT:   11228296  MISS:    4580777
L1I LOAD      ACCESS:    9426281  HIT:    9348568  MISS:      77713
L1I RFO       ACCESS:          0  HIT:          0  MISS:          0
L1I PREFETCH  ACCESS:    6382792  HIT:    1879728  MISS:    4503064
L1I WRITEBACK ACCESS:          0  HIT:          0  MISS:          0
L1I PREFETCH  REQUESTED:    6661782  ISSUED:    6661782  USEFUL:    4004512  USELESS:     498567
L1I AVERAGE MISS LATENCY: 14.714 cycles
L2C TOTAL     ACCESS:    7868463  HIT:    7550241  MISS:     318222
L2C LOAD      ACCESS:     503028  HIT:     360513  MISS:     142515
L2C RFO       ACCESS:      63957  HIT:      36545  MISS:      27412
L2C PREFETCH  ACCESS:    7009804  HIT:    6862753  MISS:     147051
L2C WRITEBACK ACCESS:     291674  HIT:     290430  MISS:       1244
L2C PREFETCH  REQUESTED:    7711329  ISSUED:    7699237  USEFUL:       6678  USELESS:     140285
L2C AVERAGE MISS LATENCY: 45.3059 cycles
LLC TOTAL     ACCESS:    2034339  HIT:    1977736  MISS:      56603
LLC LOAD      ACCESS:     142507  HIT:     130050  MISS:      12457
LLC RFO       ACCESS:      27408  HIT:      22339  MISS:       5069
LLC PREFETCH  ACCESS:    1720337  HIT:    1681828  MISS:      38509
LLC WRITEBACK ACCESS:     144087  HIT:     143519  MISS:        568
LLC PREFETCH  REQUESTED:          0  ISSUED:          0  USEFUL:       3523  USELESS:      34078
LLC AVERAGE MISS LATENCY: 168.559 cycles
Major fault: 0 Minor fault: 5526
I-Shadow cache 408 bytes
Touched + WorthPF tables 24576 bytes 
MMA filter 174 bytes 
FNL filter 272 bytes 
TOTAL PREFETCHER STORAGE SIZE: 98134 bytes
CPU 0 L1I next line prefetcher final stats
CPU 0 L1D next line prefetcher final stats

DRAM Statistics
 CHANNEL 0
 RQ ROW_BUFFER_HIT:      10094  ROW_BUFFER_MISS:      45940
 DBUS_CONGESTED:      24683
 WQ ROW_BUFFER_HIT:       1256  ROW_BUFFER_MISS:      11504  FULL:          0

 AVG_CONGESTED_CYCLE: 5

CPU 0 Branch Prediction Accuracy: 99.9279% MPKI: 0.12968 Average ROB Occupancy at Mispredict: 259.779

Branch types
NOT_BRANCH: 41006327 82.0127%
BRANCH_DIRECT_JUMP: 541914 1.08383%
BRANCH_INDIRECT: 59690 0.11938%
BRANCH_CONDITIONAL: 5915848 11.8317%
BRANCH_DIRECT_CALL: 1003588 2.00718%
BRANCH_INDIRECT_CALL: 234499 0.468998%
BRANCH_RETURN: 1238071 2.47614%
BRANCH_OTHER: 0 0%

