Initialize SIGNATURE TABLE
ST_SET: 1
ST_WAY: 256
ST_TAG_BIT: 16
ST_TAG_MASK: ffff

Initialize PATTERN TABLE
PT_SET: 512
PT_WAY: 4
SIG_DELTA_BIT: 7
C_SIG_BIT: 4
C_DELTA_BIT: 4

Initialize PREFETCH FILTER
FILTER_SET: 1024

*** ChampSim Multicore Out-of-Order Simulator ***

Warmup Instructions: 50000000
Simulation Instructions: 50000000
Number of CPUs: 1
LLC sets: 2048
LLC ways: 16
Off-chip DRAM Size: 4096 MB Channels: 1 Width: 64-bit Data Rate: 3200 MT/s

CPU 0 runs /Users/gandhardeshpande/Desktop/CSE240C/HW1/ChampSim/ipc1_public/spec_x264_001.champsimtrace.xz
CPU 0 L1I next line prefetcher
Running FNL-MMA for L1I
CPU 0 L1D next line prefetcher
Heartbeat CPU 0 instructions: 10000002 cycles: 3060141 heartbeat IPC: 3.26782 cumulative IPC: 3.26782 (Simulation time: 0 hr 0 min 10 sec) 
Heartbeat CPU 0 instructions: 20000002 cycles: 6110404 heartbeat IPC: 3.27841 cumulative IPC: 3.27311 (Simulation time: 0 hr 0 min 20 sec) 
Heartbeat CPU 0 instructions: 30000002 cycles: 9146175 heartbeat IPC: 3.29406 cumulative IPC: 3.28006 (Simulation time: 0 hr 0 min 29 sec) 
Heartbeat CPU 0 instructions: 40000000 cycles: 12190952 heartbeat IPC: 3.28431 cumulative IPC: 3.28112 (Simulation time: 0 hr 0 min 39 sec) 
Heartbeat CPU 0 instructions: 50000000 cycles: 15234309 heartbeat IPC: 3.28585 cumulative IPC: 3.28207 (Simulation time: 0 hr 0 min 49 sec) 

Warmup complete CPU 0 instructions: 50000004 cycles: 15234310 (Simulation time: 0 hr 0 min 49 sec) 

Heartbeat CPU 0 instructions: 60000002 cycles: 21160745 heartbeat IPC: 1.68736 cumulative IPC: 1.68735 (Simulation time: 0 hr 0 min 54 sec) 
Heartbeat CPU 0 instructions: 70000000 cycles: 27068896 heartbeat IPC: 1.69258 cumulative IPC: 1.68996 (Simulation time: 0 hr 0 min 59 sec) 
Heartbeat CPU 0 instructions: 80000003 cycles: 33122972 heartbeat IPC: 1.65178 cumulative IPC: 1.67704 (Simulation time: 0 hr 1 min 4 sec) 
Heartbeat CPU 0 instructions: 90000002 cycles: 39157323 heartbeat IPC: 1.65718 cumulative IPC: 1.67203 (Simulation time: 0 hr 1 min 9 sec) 
Heartbeat CPU 0 instructions: 100000002 cycles: 45052687 heartbeat IPC: 1.69625 cumulative IPC: 1.67682 (Simulation time: 0 hr 1 min 15 sec) 
Finished CPU 0 instructions: 50000002 cycles: 29818378 cumulative IPC: 1.67682 (Simulation time: 0 hr 1 min 15 sec) 

ChampSim completed all CPUs

Region of Interest Statistics

CPU 0 cumulative IPC: 1.67682 instructions: 50000002 cycles: 29818378
L1D TOTAL     ACCESS:   12968003  HIT:   12806941  MISS:     161062
L1D LOAD      ACCESS:    5094706  HIT:    5039538  MISS:      55168
L1D RFO       ACCESS:    2883021  HIT:    2848742  MISS:      34279
L1D PREFETCH  ACCESS:    4990276  HIT:    4918661  MISS:      71615
L1D WRITEBACK ACCESS:          0  HIT:          0  MISS:          0
L1D PREFETCH  REQUESTED:    5111289  ISSUED:    5044129  USEFUL:      25747  USELESS:      45677
L1D AVERAGE MISS LATENCY: 39.4286 cycles
L1I TOTAL     ACCESS:    8550384  HIT:    8188943  MISS:     361441
L1I LOAD      ACCESS:    8039248  HIT:    8034178  MISS:       5070
L1I RFO       ACCESS:          0  HIT:          0  MISS:          0
L1I PREFETCH  ACCESS:     511136  HIT:     154765  MISS:     356371
L1I WRITEBACK ACCESS:          0  HIT:          0  MISS:          0
L1I PREFETCH  REQUESTED:     522040  ISSUED:     522040  USEFUL:     291481  USELESS:      64924
L1I AVERAGE MISS LATENCY: 14.7461 cycles
L2C TOTAL     ACCESS:     739358  HIT:     700033  MISS:      39325
L2C LOAD      ACCESS:      57596  HIT:      52115  MISS:       5481
L2C RFO       ACCESS:      34053  HIT:      21992  MISS:      12061
L2C PREFETCH  ACCESS:     604613  HIT:     582910  MISS:      21703
L2C WRITEBACK ACCESS:      43096  HIT:      43016  MISS:         80
L2C PREFETCH  REQUESTED:     595604  ISSUED:     593997  USEFUL:       8966  USELESS:      12962
L2C AVERAGE MISS LATENCY: 101.062 cycles
LLC TOTAL     ACCESS:     140851  HIT:     111667  MISS:      29184
LLC LOAD      ACCESS:       5481  HIT:       3381  MISS:       2100
LLC RFO       ACCESS:      12061  HIT:        435  MISS:      11626
LLC PREFETCH  ACCESS:     109744  HIT:      94379  MISS:      15365
LLC WRITEBACK ACCESS:      13565  HIT:      13472  MISS:         93
LLC PREFETCH  REQUESTED:          0  ISSUED:          0  USEFUL:       1766  USELESS:      14119
LLC AVERAGE MISS LATENCY: 161.712 cycles
Major fault: 0 Minor fault: 1284
I-Shadow cache 408 bytes
Touched + WorthPF tables 24576 bytes 
MMA filter 174 bytes 
FNL filter 272 bytes 
TOTAL PREFETCHER STORAGE SIZE: 98134 bytes
CPU 0 L1I next line prefetcher final stats
CPU 0 L1D next line prefetcher final stats

DRAM Statistics
 CHANNEL 0
 RQ ROW_BUFFER_HIT:      10001  ROW_BUFFER_MISS:      19090
 DBUS_CONGESTED:      12765
 WQ ROW_BUFFER_HIT:       2986  ROW_BUFFER_MISS:       9729  FULL:          0

 AVG_CONGESTED_CYCLE: 6

CPU 0 Branch Prediction Accuracy: 97.1633% MPKI: 1.73704 Average ROB Occupancy at Mispredict: 42.8672

Branch types
NOT_BRANCH: 46937921 93.8758%
BRANCH_DIRECT_JUMP: 170816 0.341632%
BRANCH_INDIRECT: 0 0%
BRANCH_CONDITIONAL: 2532774 5.06555%
BRANCH_DIRECT_CALL: 114227 0.228454%
BRANCH_INDIRECT_CALL: 64863 0.129726%
BRANCH_RETURN: 179089 0.358178%
BRANCH_OTHER: 0 0%

