
*** ChampSim Multicore Out-of-Order Simulator ***

Warmup Instructions: 10000000
Simulation Instructions: 100000000
Configuration: 2
Number of CPUs: 1
LLC sets: 2048
LLC ways: 16
Off-chip DRAM Channels: 1 Width: 64-bit Data Rate: 1600 MT/s

CPU 0 runs /datasets/cs240c-wi22-a00-public/data/Assignment2-gz/GemsFDTD_712B.trace.gz
CPU 0 L1D next line prefetcher
CPU 0 L2C IP-based stride prefetcher
Initialize SRRIP state
Heartbeat CPU 0 instructions: 1000003 cycles: 634340 heartbeat IPC: 1.57645 cumulative IPC: 1.57645 (Simulation time: 0 hr 0 min 47 sec) 
Heartbeat CPU 0 instructions: 2000000 cycles: 1268254 heartbeat IPC: 1.5775 cumulative IPC: 1.57697 (Simulation time: 0 hr 1 min 33 sec) 
Heartbeat CPU 0 instructions: 3000000 cycles: 1902233 heartbeat IPC: 1.57734 cumulative IPC: 1.57709 (Simulation time: 0 hr 2 min 20 sec) 
Heartbeat CPU 0 instructions: 4000000 cycles: 2535948 heartbeat IPC: 1.578 cumulative IPC: 1.57732 (Simulation time: 0 hr 3 min 8 sec) 
Heartbeat CPU 0 instructions: 5000003 cycles: 3170101 heartbeat IPC: 1.57691 cumulative IPC: 1.57724 (Simulation time: 0 hr 3 min 55 sec) 
Heartbeat CPU 0 instructions: 6000002 cycles: 3803994 heartbeat IPC: 1.57755 cumulative IPC: 1.57729 (Simulation time: 0 hr 4 min 42 sec) 
Heartbeat CPU 0 instructions: 7000001 cycles: 4438134 heartbeat IPC: 1.57694 cumulative IPC: 1.57724 (Simulation time: 0 hr 5 min 27 sec) 
Heartbeat CPU 0 instructions: 8000000 cycles: 5071961 heartbeat IPC: 1.57772 cumulative IPC: 1.5773 (Simulation time: 0 hr 6 min 12 sec) 
Heartbeat CPU 0 instructions: 9000001 cycles: 5706072 heartbeat IPC: 1.57701 cumulative IPC: 1.57727 (Simulation time: 0 hr 6 min 57 sec) 
Heartbeat CPU 0 instructions: 10000002 cycles: 6339838 heartbeat IPC: 1.57787 cumulative IPC: 1.57733 (Simulation time: 0 hr 7 min 42 sec) 

Warmup complete CPU 0 instructions: 10000002 cycles: 6339838 (Simulation time: 0 hr 7 min 42 sec) 

Heartbeat CPU 0 instructions: 11000001 cycles: 7957214 heartbeat IPC: 0.618285 cumulative IPC: 0.618285 (Simulation time: 0 hr 8 min 34 sec) 
Heartbeat CPU 0 instructions: 12000000 cycles: 9587730 heartbeat IPC: 0.613302 cumulative IPC: 0.615783 (Simulation time: 0 hr 9 min 25 sec) 
Heartbeat CPU 0 instructions: 13000000 cycles: 11210295 heartbeat IPC: 0.616308 cumulative IPC: 0.615958 (Simulation time: 0 hr 10 min 15 sec) 
Heartbeat CPU 0 instructions: 14000001 cycles: 12814594 heartbeat IPC: 0.623326 cumulative IPC: 0.617784 (Simulation time: 0 hr 11 min 6 sec) 
Heartbeat CPU 0 instructions: 15000001 cycles: 14411033 heartbeat IPC: 0.626394 cumulative IPC: 0.619487 (Simulation time: 0 hr 11 min 58 sec) 
Heartbeat CPU 0 instructions: 16000000 cycles: 16040484 heartbeat IPC: 0.613703 cumulative IPC: 0.618515 (Simulation time: 0 hr 12 min 50 sec) 
Heartbeat CPU 0 instructions: 17000001 cycles: 17649528 heartbeat IPC: 0.621488 cumulative IPC: 0.618938 (Simulation time: 0 hr 13 min 42 sec) 
Heartbeat CPU 0 instructions: 18000003 cycles: 19285519 heartbeat IPC: 0.611252 cumulative IPC: 0.617967 (Simulation time: 0 hr 14 min 35 sec) 
Heartbeat CPU 0 instructions: 19000003 cycles: 20893440 heartbeat IPC: 0.621921 cumulative IPC: 0.618404 (Simulation time: 0 hr 15 min 28 sec) 
Heartbeat CPU 0 instructions: 20000000 cycles: 22492609 heartbeat IPC: 0.625323 cumulative IPC: 0.619089 (Simulation time: 0 hr 16 min 18 sec) 
Heartbeat CPU 0 instructions: 21000002 cycles: 24109148 heartbeat IPC: 0.618607 cumulative IPC: 0.619045 (Simulation time: 0 hr 17 min 4 sec) 
Heartbeat CPU 0 instructions: 22000001 cycles: 25738430 heartbeat IPC: 0.613767 cumulative IPC: 0.618602 (Simulation time: 0 hr 17 min 56 sec) 
Heartbeat CPU 0 instructions: 23000002 cycles: 27345980 heartbeat IPC: 0.622065 cumulative IPC: 0.618867 (Simulation time: 0 hr 18 min 50 sec) 
Heartbeat CPU 0 instructions: 24000000 cycles: 28991514 heartbeat IPC: 0.607704 cumulative IPC: 0.618056 (Simulation time: 0 hr 19 min 40 sec) 
Heartbeat CPU 0 instructions: 25000000 cycles: 30616686 heartbeat IPC: 0.615319 cumulative IPC: 0.617873 (Simulation time: 0 hr 20 min 25 sec) 
Heartbeat CPU 0 instructions: 26000002 cycles: 32229888 heartbeat IPC: 0.619886 cumulative IPC: 0.617998 (Simulation time: 0 hr 21 min 16 sec) 
Heartbeat CPU 0 instructions: 27000002 cycles: 33848743 heartbeat IPC: 0.617721 cumulative IPC: 0.617982 (Simulation time: 0 hr 22 min 10 sec) 
Heartbeat CPU 0 instructions: 28000000 cycles: 35458816 heartbeat IPC: 0.621089 cumulative IPC: 0.618154 (Simulation time: 0 hr 23 min 2 sec) 
Heartbeat CPU 0 instructions: 29000002 cycles: 37066891 heartbeat IPC: 0.621863 cumulative IPC: 0.618348 (Simulation time: 0 hr 23 min 54 sec) 
Heartbeat CPU 0 instructions: 30000003 cycles: 38669573 heartbeat IPC: 0.623955 cumulative IPC: 0.618626 (Simulation time: 0 hr 24 min 46 sec) 
Heartbeat CPU 0 instructions: 31000001 cycles: 40286284 heartbeat IPC: 0.618538 cumulative IPC: 0.618621 (Simulation time: 0 hr 25 min 39 sec) 
Heartbeat CPU 0 instructions: 32000000 cycles: 41914303 heartbeat IPC: 0.614243 cumulative IPC: 0.618421 (Simulation time: 0 hr 26 min 31 sec) 
Heartbeat CPU 0 instructions: 33000000 cycles: 43528777 heartbeat IPC: 0.619397 cumulative IPC: 0.618463 (Simulation time: 0 hr 27 min 21 sec) 
Heartbeat CPU 0 instructions: 34000003 cycles: 45116457 heartbeat IPC: 0.629852 cumulative IPC: 0.61893 (Simulation time: 0 hr 28 min 13 sec) 
Heartbeat CPU 0 instructions: 35000000 cycles: 46730324 heartbeat IPC: 0.619628 cumulative IPC: 0.618958 (Simulation time: 0 hr 29 min 7 sec) 
Heartbeat CPU 0 instructions: 36000000 cycles: 48346852 heartbeat IPC: 0.61861 cumulative IPC: 0.618944 (Simulation time: 0 hr 30 min 1 sec) 
Heartbeat CPU 0 instructions: 37000001 cycles: 49941778 heartbeat IPC: 0.626989 cumulative IPC: 0.619238 (Simulation time: 0 hr 30 min 56 sec) 
Heartbeat CPU 0 instructions: 38000003 cycles: 51540128 heartbeat IPC: 0.625646 cumulative IPC: 0.619465 (Simulation time: 0 hr 31 min 49 sec) 
Heartbeat CPU 0 instructions: 39000000 cycles: 53174401 heartbeat IPC: 0.611891 cumulative IPC: 0.619201 (Simulation time: 0 hr 32 min 41 sec) 
Heartbeat CPU 0 instructions: 40000000 cycles: 54756073 heartbeat IPC: 0.632242 cumulative IPC: 0.619627 (Simulation time: 0 hr 33 min 34 sec) 
Heartbeat CPU 0 instructions: 41000003 cycles: 56363261 heartbeat IPC: 0.622207 cumulative IPC: 0.61971 (Simulation time: 0 hr 34 min 27 sec) 
Heartbeat CPU 0 instructions: 42000000 cycles: 57986493 heartbeat IPC: 0.616053 cumulative IPC: 0.619595 (Simulation time: 0 hr 35 min 22 sec) 
Heartbeat CPU 0 instructions: 43000001 cycles: 59608290 heartbeat IPC: 0.616601 cumulative IPC: 0.619504 (Simulation time: 0 hr 36 min 13 sec) 
Heartbeat CPU 0 instructions: 44000000 cycles: 61210690 heartbeat IPC: 0.624063 cumulative IPC: 0.619637 (Simulation time: 0 hr 37 min 3 sec) 
Heartbeat CPU 0 instructions: 45000002 cycles: 62808925 heartbeat IPC: 0.625691 cumulative IPC: 0.619808 (Simulation time: 0 hr 37 min 57 sec) 
Heartbeat CPU 0 instructions: 46000002 cycles: 64392526 heartbeat IPC: 0.631472 cumulative IPC: 0.620126 (Simulation time: 0 hr 38 min 50 sec) 
Heartbeat CPU 0 instructions: 47000001 cycles: 66014202 heartbeat IPC: 0.616645 cumulative IPC: 0.620032 (Simulation time: 0 hr 39 min 41 sec) 
Heartbeat CPU 0 instructions: 48000000 cycles: 67629747 heartbeat IPC: 0.618986 cumulative IPC: 0.620004 (Simulation time: 0 hr 40 min 34 sec) 
Heartbeat CPU 0 instructions: 49000000 cycles: 69226010 heartbeat IPC: 0.626463 cumulative IPC: 0.620168 (Simulation time: 0 hr 41 min 27 sec) 
Heartbeat CPU 0 instructions: 50000001 cycles: 70843382 heartbeat IPC: 0.618288 cumulative IPC: 0.620121 (Simulation time: 0 hr 42 min 18 sec) 
Heartbeat CPU 0 instructions: 51000002 cycles: 72470517 heartbeat IPC: 0.614578 cumulative IPC: 0.619985 (Simulation time: 0 hr 43 min 11 sec) 
Heartbeat CPU 0 instructions: 52000000 cycles: 74081306 heartbeat IPC: 0.620813 cumulative IPC: 0.620004 (Simulation time: 0 hr 44 min 5 sec) 
Heartbeat CPU 0 instructions: 53000000 cycles: 75724685 heartbeat IPC: 0.608502 cumulative IPC: 0.619732 (Simulation time: 0 hr 44 min 57 sec) 
Heartbeat CPU 0 instructions: 54000000 cycles: 77314879 heartbeat IPC: 0.628854 cumulative IPC: 0.619936 (Simulation time: 0 hr 45 min 51 sec) 
Heartbeat CPU 0 instructions: 55000003 cycles: 78905766 heartbeat IPC: 0.628582 cumulative IPC: 0.620126 (Simulation time: 0 hr 46 min 43 sec) 
Heartbeat CPU 0 instructions: 56000000 cycles: 80521157 heartbeat IPC: 0.619043 cumulative IPC: 0.620102 (Simulation time: 0 hr 47 min 36 sec) 
Heartbeat CPU 0 instructions: 57000000 cycles: 82174471 heartbeat IPC: 0.604846 cumulative IPC: 0.61977 (Simulation time: 0 hr 48 min 29 sec) 
Heartbeat CPU 0 instructions: 58000001 cycles: 83796769 heartbeat IPC: 0.61641 cumulative IPC: 0.619699 (Simulation time: 0 hr 49 min 22 sec) 
Heartbeat CPU 0 instructions: 59000001 cycles: 85417554 heartbeat IPC: 0.616985 cumulative IPC: 0.619644 (Simulation time: 0 hr 50 min 16 sec) 
Heartbeat CPU 0 instructions: 60000000 cycles: 87050812 heartbeat IPC: 0.612273 cumulative IPC: 0.619494 (Simulation time: 0 hr 51 min 8 sec) 
Heartbeat CPU 0 instructions: 61000001 cycles: 88641067 heartbeat IPC: 0.628831 cumulative IPC: 0.619675 (Simulation time: 0 hr 52 min 0 sec) 
Heartbeat CPU 0 instructions: 62000000 cycles: 90235982 heartbeat IPC: 0.626992 cumulative IPC: 0.619814 (Simulation time: 0 hr 52 min 52 sec) 
Heartbeat CPU 0 instructions: 63000003 cycles: 91857907 heartbeat IPC: 0.616553 cumulative IPC: 0.619752 (Simulation time: 0 hr 53 min 44 sec) 
Heartbeat CPU 0 instructions: 64000000 cycles: 93478711 heartbeat IPC: 0.616976 cumulative IPC: 0.6197 (Simulation time: 0 hr 54 min 37 sec) 
Heartbeat CPU 0 instructions: 65000003 cycles: 95107388 heartbeat IPC: 0.613997 cumulative IPC: 0.619596 (Simulation time: 0 hr 55 min 31 sec) 
Heartbeat CPU 0 instructions: 66000000 cycles: 96700755 heartbeat IPC: 0.6276 cumulative IPC: 0.619737 (Simulation time: 0 hr 56 min 25 sec) 
Heartbeat CPU 0 instructions: 67000000 cycles: 98302859 heartbeat IPC: 0.624179 cumulative IPC: 0.619814 (Simulation time: 0 hr 57 min 18 sec) 
Heartbeat CPU 0 instructions: 68000000 cycles: 99905984 heartbeat IPC: 0.623782 cumulative IPC: 0.619882 (Simulation time: 0 hr 58 min 10 sec) 
Heartbeat CPU 0 instructions: 69000000 cycles: 101494103 heartbeat IPC: 0.629676 cumulative IPC: 0.620046 (Simulation time: 0 hr 58 min 59 sec) 
Heartbeat CPU 0 instructions: 70000002 cycles: 103129075 heartbeat IPC: 0.611632 cumulative IPC: 0.619904 (Simulation time: 0 hr 59 min 50 sec) 
Heartbeat CPU 0 instructions: 71000002 cycles: 104780652 heartbeat IPC: 0.605482 cumulative IPC: 0.619662 (Simulation time: 1 hr 0 min 40 sec) 
Heartbeat CPU 0 instructions: 72000000 cycles: 106461109 heartbeat IPC: 0.595075 cumulative IPC: 0.619249 (Simulation time: 1 hr 1 min 32 sec) 
Heartbeat CPU 0 instructions: 73000000 cycles: 108155295 heartbeat IPC: 0.590254 cumulative IPC: 0.618767 (Simulation time: 1 hr 2 min 23 sec) 
Heartbeat CPU 0 instructions: 74000001 cycles: 109874868 heartbeat IPC: 0.58154 cumulative IPC: 0.618148 (Simulation time: 1 hr 3 min 17 sec) 
Heartbeat CPU 0 instructions: 75000003 cycles: 111580406 heartbeat IPC: 0.586326 cumulative IPC: 0.617633 (Simulation time: 1 hr 4 min 6 sec) 
Heartbeat CPU 0 instructions: 76000000 cycles: 113279364 heartbeat IPC: 0.588594 cumulative IPC: 0.617171 (Simulation time: 1 hr 4 min 57 sec) 
Heartbeat CPU 0 instructions: 77000000 cycles: 114995641 heartbeat IPC: 0.582657 cumulative IPC: 0.616626 (Simulation time: 1 hr 5 min 50 sec) 
Heartbeat CPU 0 instructions: 78000001 cycles: 116693108 heartbeat IPC: 0.589114 cumulative IPC: 0.616203 (Simulation time: 1 hr 6 min 38 sec) 
Heartbeat CPU 0 instructions: 79000003 cycles: 118400413 heartbeat IPC: 0.58572 cumulative IPC: 0.615738 (Simulation time: 1 hr 7 min 23 sec) 
Heartbeat CPU 0 instructions: 80000000 cycles: 120119997 heartbeat IPC: 0.581534 cumulative IPC: 0.615222 (Simulation time: 1 hr 8 min 7 sec) 
Heartbeat CPU 0 instructions: 81000001 cycles: 121832062 heartbeat IPC: 0.584091 cumulative IPC: 0.61476 (Simulation time: 1 hr 8 min 46 sec) 
Heartbeat CPU 0 instructions: 82000000 cycles: 123544902 heartbeat IPC: 0.583825 cumulative IPC: 0.614308 (Simulation time: 1 hr 9 min 29 sec) 
Heartbeat CPU 0 instructions: 83000001 cycles: 125245603 heartbeat IPC: 0.587993 cumulative IPC: 0.613932 (Simulation time: 1 hr 10 min 7 sec) 
Heartbeat CPU 0 instructions: 84000000 cycles: 126959015 heartbeat IPC: 0.58363 cumulative IPC: 0.613501 (Simulation time: 1 hr 10 min 44 sec) 
Heartbeat CPU 0 instructions: 85000000 cycles: 128661276 heartbeat IPC: 0.587454 cumulative IPC: 0.613139 (Simulation time: 1 hr 11 min 21 sec) 
Heartbeat CPU 0 instructions: 86000000 cycles: 130364130 heartbeat IPC: 0.587249 cumulative IPC: 0.612783 (Simulation time: 1 hr 11 min 57 sec) 
Heartbeat CPU 0 instructions: 87000001 cycles: 132086115 heartbeat IPC: 0.580726 cumulative IPC: 0.612344 (Simulation time: 1 hr 12 min 32 sec) 
Heartbeat CPU 0 instructions: 88000000 cycles: 133805913 heartbeat IPC: 0.581463 cumulative IPC: 0.611928 (Simulation time: 1 hr 13 min 9 sec) 
Heartbeat CPU 0 instructions: 89000003 cycles: 135531719 heartbeat IPC: 0.579441 cumulative IPC: 0.611494 (Simulation time: 1 hr 13 min 45 sec) 
Heartbeat CPU 0 instructions: 90000000 cycles: 137252659 heartbeat IPC: 0.581076 cumulative IPC: 0.611094 (Simulation time: 1 hr 14 min 18 sec) 
Heartbeat CPU 0 instructions: 91000001 cycles: 138978581 heartbeat IPC: 0.579401 cumulative IPC: 0.610681 (Simulation time: 1 hr 14 min 51 sec) 
Heartbeat CPU 0 instructions: 92000000 cycles: 140714863 heartbeat IPC: 0.575943 cumulative IPC: 0.610232 (Simulation time: 1 hr 15 min 22 sec) 
Heartbeat CPU 0 instructions: 93000003 cycles: 142433742 heartbeat IPC: 0.581776 cumulative IPC: 0.609873 (Simulation time: 1 hr 15 min 51 sec) 
Heartbeat CPU 0 instructions: 94000002 cycles: 144148071 heartbeat IPC: 0.583318 cumulative IPC: 0.609543 (Simulation time: 1 hr 16 min 20 sec) 
Heartbeat CPU 0 instructions: 95000001 cycles: 145883726 heartbeat IPC: 0.576151 cumulative IPC: 0.609127 (Simulation time: 1 hr 16 min 48 sec) 
Heartbeat CPU 0 instructions: 96000000 cycles: 147596324 heartbeat IPC: 0.583908 cumulative IPC: 0.608822 (Simulation time: 1 hr 17 min 14 sec) 
Heartbeat CPU 0 instructions: 97000003 cycles: 149317065 heartbeat IPC: 0.581147 cumulative IPC: 0.608489 (Simulation time: 1 hr 17 min 36 sec) 
Heartbeat CPU 0 instructions: 98000000 cycles: 151034750 heartbeat IPC: 0.582177 cumulative IPC: 0.608176 (Simulation time: 1 hr 17 min 57 sec) 
Heartbeat CPU 0 instructions: 99000001 cycles: 152756704 heartbeat IPC: 0.580736 cumulative IPC: 0.607853 (Simulation time: 1 hr 18 min 17 sec) 
Heartbeat CPU 0 instructions: 100000000 cycles: 154485450 heartbeat IPC: 0.578453 cumulative IPC: 0.60751 (Simulation time: 1 hr 18 min 38 sec) 
Heartbeat CPU 0 instructions: 101000001 cycles: 156203489 heartbeat IPC: 0.58206 cumulative IPC: 0.607219 (Simulation time: 1 hr 18 min 56 sec) 
Heartbeat CPU 0 instructions: 102000002 cycles: 157929645 heartbeat IPC: 0.579323 cumulative IPC: 0.606901 (Simulation time: 1 hr 19 min 14 sec) 
Heartbeat CPU 0 instructions: 103000000 cycles: 159638782 heartbeat IPC: 0.585089 cumulative IPC: 0.606658 (Simulation time: 1 hr 19 min 31 sec) 
Heartbeat CPU 0 instructions: 104000000 cycles: 161350947 heartbeat IPC: 0.584056 cumulative IPC: 0.606408 (Simulation time: 1 hr 19 min 47 sec) 
Heartbeat CPU 0 instructions: 105000000 cycles: 163072641 heartbeat IPC: 0.580823 cumulative IPC: 0.606127 (Simulation time: 1 hr 20 min 1 sec) 
Heartbeat CPU 0 instructions: 106000002 cycles: 164778304 heartbeat IPC: 0.586283 cumulative IPC: 0.605913 (Simulation time: 1 hr 20 min 14 sec) 
Heartbeat CPU 0 instructions: 107000000 cycles: 166501118 heartbeat IPC: 0.580445 cumulative IPC: 0.60564 (Simulation time: 1 hr 20 min 24 sec) 
Heartbeat CPU 0 instructions: 108000000 cycles: 168210753 heartbeat IPC: 0.58492 cumulative IPC: 0.605421 (Simulation time: 1 hr 20 min 33 sec) 
Heartbeat CPU 0 instructions: 109000003 cycles: 169936248 heartbeat IPC: 0.579546 cumulative IPC: 0.605148 (Simulation time: 1 hr 20 min 42 sec) 
Heartbeat CPU 0 instructions: 110000001 cycles: 171654204 heartbeat IPC: 0.582086 cumulative IPC: 0.604908 (Simulation time: 1 hr 20 min 49 sec) 
Finished CPU 0 instructions: 100000003 cycles: 165314367 cummulative IPC: 0.604908 (Simulation time: 1 hr 20 min 49 sec) 

ChampSim completed all CPUs

Region of Interest Statistics

CPU 0 cummulative IPC: 0.604908 instructions: 100000003 cycles: 165314367
LLC TOTAL     ACCESS:    5145102  HIT:     249514  MISS:    4895588
LLC LOAD      ACCESS:     521152  HIT:     109120  MISS:     412032
LLC RFO       ACCESS:         18  HIT:          0  MISS:         18
LLC PREFETCH  ACCESS:    3246631  HIT:      55991  MISS:    3190640
LLC WRITEBACK ACCESS:    1377301  HIT:      84403  MISS:    1292898
Insertion Distribution: 
	LOAD 108079 0 19588 300715 
	RFO 0 0 18 0 
	PREF 0 14935 81365 3461937 
	WRITEBACK 0 0 0 1414908 
Total Prefetch Downgrades: 9832
