
*** ChampSim Multicore Out-of-Order Simulator ***

Warmup Instructions: 10000000
Simulation Instructions: 100000000
Configuration: 2
Number of CPUs: 1
LLC sets: 2048
LLC ways: 16
Off-chip DRAM Channels: 1 Width: 64-bit Data Rate: 1600 MT/s

CPU 0 runs /datasets/cs240c-wi22-a00-public/data/Assignment2-gz/milc_360B.trace.gz
CPU 0 L1D next line prefetcher
CPU 0 L2C IP-based stride prefetcher
Initialize SRRIP state
Heartbeat CPU 0 instructions: 1000001 cycles: 549511 heartbeat IPC: 1.8198 cumulative IPC: 1.8198 (Simulation time: 0 hr 0 min 48 sec) 
Heartbeat CPU 0 instructions: 2000003 cycles: 1099026 heartbeat IPC: 1.81979 cumulative IPC: 1.8198 (Simulation time: 0 hr 1 min 43 sec) 
Heartbeat CPU 0 instructions: 3000001 cycles: 1648486 heartbeat IPC: 1.81997 cumulative IPC: 1.81985 (Simulation time: 0 hr 2 min 39 sec) 
Heartbeat CPU 0 instructions: 4000000 cycles: 2197959 heartbeat IPC: 1.81992 cumulative IPC: 1.81987 (Simulation time: 0 hr 3 min 36 sec) 
Heartbeat CPU 0 instructions: 5000002 cycles: 2747468 heartbeat IPC: 1.81981 cumulative IPC: 1.81986 (Simulation time: 0 hr 4 min 32 sec) 
Heartbeat CPU 0 instructions: 6000001 cycles: 3296983 heartbeat IPC: 1.81978 cumulative IPC: 1.81985 (Simulation time: 0 hr 5 min 25 sec) 
Heartbeat CPU 0 instructions: 7000000 cycles: 3846462 heartbeat IPC: 1.8199 cumulative IPC: 1.81985 (Simulation time: 0 hr 6 min 21 sec) 
Heartbeat CPU 0 instructions: 8000000 cycles: 4395923 heartbeat IPC: 1.81997 cumulative IPC: 1.81987 (Simulation time: 0 hr 7 min 16 sec) 
Heartbeat CPU 0 instructions: 9000001 cycles: 4945436 heartbeat IPC: 1.8198 cumulative IPC: 1.81986 (Simulation time: 0 hr 8 min 13 sec) 
Heartbeat CPU 0 instructions: 10000001 cycles: 5494911 heartbeat IPC: 1.81992 cumulative IPC: 1.81987 (Simulation time: 0 hr 9 min 11 sec) 

Warmup complete CPU 0 instructions: 10000001 cycles: 5494911 (Simulation time: 0 hr 9 min 11 sec) 

Heartbeat CPU 0 instructions: 11000001 cycles: 7197509 heartbeat IPC: 0.587338 cumulative IPC: 0.587338 (Simulation time: 0 hr 10 min 16 sec) 
Heartbeat CPU 0 instructions: 12000000 cycles: 8900816 heartbeat IPC: 0.587093 cumulative IPC: 0.587215 (Simulation time: 0 hr 11 min 18 sec) 
Heartbeat CPU 0 instructions: 13000001 cycles: 10602277 heartbeat IPC: 0.587731 cumulative IPC: 0.587387 (Simulation time: 0 hr 12 min 24 sec) 
Heartbeat CPU 0 instructions: 14000001 cycles: 12300553 heartbeat IPC: 0.588832 cumulative IPC: 0.587748 (Simulation time: 0 hr 13 min 29 sec) 
Heartbeat CPU 0 instructions: 15000003 cycles: 14000677 heartbeat IPC: 0.588194 cumulative IPC: 0.587837 (Simulation time: 0 hr 14 min 39 sec) 
Heartbeat CPU 0 instructions: 16000000 cycles: 15708657 heartbeat IPC: 0.585485 cumulative IPC: 0.587444 (Simulation time: 0 hr 15 min 50 sec) 
Heartbeat CPU 0 instructions: 17000003 cycles: 17408959 heartbeat IPC: 0.588133 cumulative IPC: 0.587542 (Simulation time: 0 hr 16 min 53 sec) 
Heartbeat CPU 0 instructions: 18000002 cycles: 19109619 heartbeat IPC: 0.588006 cumulative IPC: 0.5876 (Simulation time: 0 hr 18 min 0 sec) 
Heartbeat CPU 0 instructions: 19000000 cycles: 20811791 heartbeat IPC: 0.587484 cumulative IPC: 0.587587 (Simulation time: 0 hr 19 min 4 sec) 
Heartbeat CPU 0 instructions: 20000000 cycles: 22513269 heartbeat IPC: 0.587724 cumulative IPC: 0.587601 (Simulation time: 0 hr 20 min 16 sec) 
Heartbeat CPU 0 instructions: 21000002 cycles: 24208472 heartbeat IPC: 0.589901 cumulative IPC: 0.587809 (Simulation time: 0 hr 21 min 25 sec) 
Heartbeat CPU 0 instructions: 22000003 cycles: 25899586 heartbeat IPC: 0.591327 cumulative IPC: 0.588101 (Simulation time: 0 hr 22 min 30 sec) 
Heartbeat CPU 0 instructions: 23000001 cycles: 27598036 heartbeat IPC: 0.588771 cumulative IPC: 0.588152 (Simulation time: 0 hr 23 min 33 sec) 
Heartbeat CPU 0 instructions: 24000000 cycles: 29290893 heartbeat IPC: 0.590717 cumulative IPC: 0.588335 (Simulation time: 0 hr 24 min 37 sec) 
Heartbeat CPU 0 instructions: 25000003 cycles: 30989103 heartbeat IPC: 0.588857 cumulative IPC: 0.588369 (Simulation time: 0 hr 25 min 39 sec) 
Heartbeat CPU 0 instructions: 26000001 cycles: 32685062 heartbeat IPC: 0.589636 cumulative IPC: 0.588448 (Simulation time: 0 hr 26 min 43 sec) 
Heartbeat CPU 0 instructions: 27000001 cycles: 34376259 heartbeat IPC: 0.591297 cumulative IPC: 0.588615 (Simulation time: 0 hr 27 min 46 sec) 
Heartbeat CPU 0 instructions: 28000000 cycles: 36064258 heartbeat IPC: 0.592417 cumulative IPC: 0.588825 (Simulation time: 0 hr 28 min 47 sec) 
Heartbeat CPU 0 instructions: 29000001 cycles: 37755872 heartbeat IPC: 0.591152 cumulative IPC: 0.588947 (Simulation time: 0 hr 29 min 42 sec) 
Heartbeat CPU 0 instructions: 30000000 cycles: 39448264 heartbeat IPC: 0.590879 cumulative IPC: 0.589043 (Simulation time: 0 hr 30 min 41 sec) 
Heartbeat CPU 0 instructions: 31000003 cycles: 41140752 heartbeat IPC: 0.590848 cumulative IPC: 0.589129 (Simulation time: 0 hr 31 min 38 sec) 
Heartbeat CPU 0 instructions: 32000000 cycles: 42834030 heartbeat IPC: 0.590569 cumulative IPC: 0.589194 (Simulation time: 0 hr 32 min 35 sec) 
Heartbeat CPU 0 instructions: 33000000 cycles: 44526078 heartbeat IPC: 0.591 cumulative IPC: 0.589273 (Simulation time: 0 hr 33 min 37 sec) 
Heartbeat CPU 0 instructions: 34000003 cycles: 46213859 heartbeat IPC: 0.592496 cumulative IPC: 0.589406 (Simulation time: 0 hr 34 min 36 sec) 
Heartbeat CPU 0 instructions: 35000001 cycles: 47909024 heartbeat IPC: 0.589912 cumulative IPC: 0.589426 (Simulation time: 0 hr 35 min 32 sec) 
Heartbeat CPU 0 instructions: 36000000 cycles: 49603507 heartbeat IPC: 0.59015 cumulative IPC: 0.589454 (Simulation time: 0 hr 36 min 28 sec) 
Heartbeat CPU 0 instructions: 37000000 cycles: 51293110 heartbeat IPC: 0.591855 cumulative IPC: 0.589543 (Simulation time: 0 hr 37 min 24 sec) 
Heartbeat CPU 0 instructions: 38000001 cycles: 52983046 heartbeat IPC: 0.591739 cumulative IPC: 0.589621 (Simulation time: 0 hr 38 min 25 sec) 
Heartbeat CPU 0 instructions: 39000000 cycles: 54679438 heartbeat IPC: 0.589486 cumulative IPC: 0.589616 (Simulation time: 0 hr 39 min 28 sec) 
Heartbeat CPU 0 instructions: 40000000 cycles: 56371390 heartbeat IPC: 0.591033 cumulative IPC: 0.589663 (Simulation time: 0 hr 40 min 34 sec) 
Heartbeat CPU 0 instructions: 41000001 cycles: 58060409 heartbeat IPC: 0.59206 cumulative IPC: 0.58974 (Simulation time: 0 hr 41 min 40 sec) 
Heartbeat CPU 0 instructions: 42000001 cycles: 59758470 heartbeat IPC: 0.588907 cumulative IPC: 0.589714 (Simulation time: 0 hr 42 min 43 sec) 
Heartbeat CPU 0 instructions: 43000000 cycles: 61451565 heartbeat IPC: 0.590634 cumulative IPC: 0.589742 (Simulation time: 0 hr 43 min 45 sec) 
Heartbeat CPU 0 instructions: 44000000 cycles: 63312387 heartbeat IPC: 0.537397 cumulative IPC: 0.588057 (Simulation time: 0 hr 44 min 49 sec) 
Heartbeat CPU 0 instructions: 45000002 cycles: 65535870 heartbeat IPC: 0.449746 cumulative IPC: 0.582935 (Simulation time: 0 hr 46 min 9 sec) 
Heartbeat CPU 0 instructions: 46000000 cycles: 67756178 heartbeat IPC: 0.450387 cumulative IPC: 0.578209 (Simulation time: 0 hr 47 min 22 sec) 
Heartbeat CPU 0 instructions: 47000002 cycles: 70014742 heartbeat IPC: 0.44276 cumulative IPC: 0.573467 (Simulation time: 0 hr 48 min 33 sec) 
Heartbeat CPU 0 instructions: 48000000 cycles: 72233486 heartbeat IPC: 0.450705 cumulative IPC: 0.569386 (Simulation time: 0 hr 49 min 48 sec) 
Heartbeat CPU 0 instructions: 49000003 cycles: 74416656 heartbeat IPC: 0.458051 cumulative IPC: 0.565859 (Simulation time: 0 hr 50 min 55 sec) 
Heartbeat CPU 0 instructions: 50000002 cycles: 76412495 heartbeat IPC: 0.501042 cumulative IPC: 0.564035 (Simulation time: 0 hr 52 min 4 sec) 
Heartbeat CPU 0 instructions: 51000002 cycles: 77558219 heartbeat IPC: 0.872811 cumulative IPC: 0.568944 (Simulation time: 0 hr 53 min 4 sec) 
Heartbeat CPU 0 instructions: 52000000 cycles: 79424814 heartbeat IPC: 0.535734 cumulative IPC: 0.568106 (Simulation time: 0 hr 54 min 11 sec) 
Heartbeat CPU 0 instructions: 53000002 cycles: 81680919 heartbeat IPC: 0.443243 cumulative IPC: 0.564408 (Simulation time: 0 hr 55 min 9 sec) 
Heartbeat CPU 0 instructions: 54000003 cycles: 83940721 heartbeat IPC: 0.442517 cumulative IPC: 0.560897 (Simulation time: 0 hr 56 min 6 sec) 
Heartbeat CPU 0 instructions: 55000003 cycles: 86180342 heartbeat IPC: 0.446504 cumulative IPC: 0.557722 (Simulation time: 0 hr 57 min 7 sec) 
Heartbeat CPU 0 instructions: 56000000 cycles: 88421554 heartbeat IPC: 0.446186 cumulative IPC: 0.554707 (Simulation time: 0 hr 58 min 7 sec) 
Heartbeat CPU 0 instructions: 57000000 cycles: 90658566 heartbeat IPC: 0.447025 cumulative IPC: 0.551879 (Simulation time: 0 hr 59 min 6 sec) 
Heartbeat CPU 0 instructions: 58000000 cycles: 92883042 heartbeat IPC: 0.449544 cumulative IPC: 0.549274 (Simulation time: 1 hr 0 min 1 sec) 
Heartbeat CPU 0 instructions: 59000001 cycles: 95115338 heartbeat IPC: 0.44797 cumulative IPC: 0.54675 (Simulation time: 1 hr 0 min 46 sec) 
Heartbeat CPU 0 instructions: 60000000 cycles: 97343358 heartbeat IPC: 0.448829 cumulative IPC: 0.544375 (Simulation time: 1 hr 1 min 29 sec) 
Heartbeat CPU 0 instructions: 61000000 cycles: 99573708 heartbeat IPC: 0.44836 cumulative IPC: 0.542099 (Simulation time: 1 hr 2 min 10 sec) 
Heartbeat CPU 0 instructions: 62000003 cycles: 101802660 heartbeat IPC: 0.448643 cumulative IPC: 0.539936 (Simulation time: 1 hr 2 min 54 sec) 
Heartbeat CPU 0 instructions: 63000003 cycles: 104037658 heartbeat IPC: 0.447428 cumulative IPC: 0.537838 (Simulation time: 1 hr 3 min 32 sec) 
Heartbeat CPU 0 instructions: 64000000 cycles: 106272452 heartbeat IPC: 0.447467 cumulative IPC: 0.535834 (Simulation time: 1 hr 4 min 13 sec) 
Heartbeat CPU 0 instructions: 65000001 cycles: 108507883 heartbeat IPC: 0.447341 cumulative IPC: 0.533913 (Simulation time: 1 hr 4 min 55 sec) 
Heartbeat CPU 0 instructions: 66000001 cycles: 110733961 heartbeat IPC: 0.449221 cumulative IPC: 0.532122 (Simulation time: 1 hr 5 min 38 sec) 
Heartbeat CPU 0 instructions: 67000002 cycles: 112969884 heartbeat IPC: 0.447243 cumulative IPC: 0.530356 (Simulation time: 1 hr 6 min 22 sec) 
Heartbeat CPU 0 instructions: 68000000 cycles: 115199986 heartbeat IPC: 0.448409 cumulative IPC: 0.52869 (Simulation time: 1 hr 7 min 0 sec) 
Heartbeat CPU 0 instructions: 69000001 cycles: 117434096 heartbeat IPC: 0.447606 cumulative IPC: 0.527072 (Simulation time: 1 hr 7 min 35 sec) 
Heartbeat CPU 0 instructions: 70000000 cycles: 119665576 heartbeat IPC: 0.448133 cumulative IPC: 0.525529 (Simulation time: 1 hr 8 min 9 sec) 
Heartbeat CPU 0 instructions: 71000000 cycles: 121898565 heartbeat IPC: 0.44783 cumulative IPC: 0.524039 (Simulation time: 1 hr 8 min 42 sec) 
Heartbeat CPU 0 instructions: 72000000 cycles: 124127101 heartbeat IPC: 0.448725 cumulative IPC: 0.522624 (Simulation time: 1 hr 9 min 13 sec) 
Heartbeat CPU 0 instructions: 73000001 cycles: 126342441 heartbeat IPC: 0.451398 cumulative IPC: 0.521318 (Simulation time: 1 hr 9 min 45 sec) 
Heartbeat CPU 0 instructions: 74000002 cycles: 127922119 heartbeat IPC: 0.633041 cumulative IPC: 0.52276 (Simulation time: 1 hr 10 min 15 sec) 
Heartbeat CPU 0 instructions: 75000003 cycles: 129501028 heartbeat IPC: 0.633349 cumulative IPC: 0.524168 (Simulation time: 1 hr 10 min 46 sec) 
Heartbeat CPU 0 instructions: 76000000 cycles: 131081258 heartbeat IPC: 0.632817 cumulative IPC: 0.525535 (Simulation time: 1 hr 11 min 15 sec) 
Heartbeat CPU 0 instructions: 77000000 cycles: 132665257 heartbeat IPC: 0.631314 cumulative IPC: 0.526852 (Simulation time: 1 hr 11 min 48 sec) 
Heartbeat CPU 0 instructions: 78000000 cycles: 134257062 heartbeat IPC: 0.628218 cumulative IPC: 0.528105 (Simulation time: 1 hr 12 min 20 sec) 
Heartbeat CPU 0 instructions: 79000000 cycles: 135842904 heartbeat IPC: 0.63058 cumulative IPC: 0.529352 (Simulation time: 1 hr 12 min 50 sec) 
Heartbeat CPU 0 instructions: 80000000 cycles: 137430195 heartbeat IPC: 0.630004 cumulative IPC: 0.530563 (Simulation time: 1 hr 13 min 21 sec) 
Heartbeat CPU 0 instructions: 81000003 cycles: 139017016 heartbeat IPC: 0.630193 cumulative IPC: 0.531747 (Simulation time: 1 hr 13 min 49 sec) 
Heartbeat CPU 0 instructions: 82000003 cycles: 140607738 heartbeat IPC: 0.628645 cumulative IPC: 0.532888 (Simulation time: 1 hr 14 min 18 sec) 
Heartbeat CPU 0 instructions: 83000002 cycles: 142192803 heartbeat IPC: 0.630888 cumulative IPC: 0.534024 (Simulation time: 1 hr 14 min 47 sec) 
Heartbeat CPU 0 instructions: 84000000 cycles: 143784794 heartbeat IPC: 0.628143 cumulative IPC: 0.535108 (Simulation time: 1 hr 15 min 13 sec) 
Heartbeat CPU 0 instructions: 85000000 cycles: 145372812 heartbeat IPC: 0.629716 cumulative IPC: 0.536182 (Simulation time: 1 hr 15 min 39 sec) 
Heartbeat CPU 0 instructions: 86000000 cycles: 146960357 heartbeat IPC: 0.629903 cumulative IPC: 0.537234 (Simulation time: 1 hr 16 min 4 sec) 
Heartbeat CPU 0 instructions: 87000000 cycles: 148546487 heartbeat IPC: 0.630465 cumulative IPC: 0.538267 (Simulation time: 1 hr 16 min 29 sec) 
Heartbeat CPU 0 instructions: 88000000 cycles: 150133496 heartbeat IPC: 0.630116 cumulative IPC: 0.539275 (Simulation time: 1 hr 16 min 52 sec) 
Heartbeat CPU 0 instructions: 89000002 cycles: 151719540 heartbeat IPC: 0.630501 cumulative IPC: 0.540265 (Simulation time: 1 hr 17 min 14 sec) 
Heartbeat CPU 0 instructions: 90000002 cycles: 153305742 heartbeat IPC: 0.630437 cumulative IPC: 0.541232 (Simulation time: 1 hr 17 min 33 sec) 
Heartbeat CPU 0 instructions: 91000003 cycles: 154888704 heartbeat IPC: 0.631728 cumulative IPC: 0.542191 (Simulation time: 1 hr 17 min 51 sec) 
Heartbeat CPU 0 instructions: 92000000 cycles: 156479910 heartbeat IPC: 0.628452 cumulative IPC: 0.5431 (Simulation time: 1 hr 18 min 7 sec) 
Heartbeat CPU 0 instructions: 93000000 cycles: 158062363 heartbeat IPC: 0.63193 cumulative IPC: 0.544022 (Simulation time: 1 hr 18 min 23 sec) 
Heartbeat CPU 0 instructions: 94000000 cycles: 159651263 heartbeat IPC: 0.629366 cumulative IPC: 0.544901 (Simulation time: 1 hr 18 min 40 sec) 
Heartbeat CPU 0 instructions: 95000000 cycles: 161234735 heartbeat IPC: 0.631524 cumulative IPC: 0.545782 (Simulation time: 1 hr 18 min 56 sec) 
Heartbeat CPU 0 instructions: 96000000 cycles: 162825818 heartbeat IPC: 0.628503 cumulative IPC: 0.546619 (Simulation time: 1 hr 19 min 10 sec) 
Heartbeat CPU 0 instructions: 97000002 cycles: 164404456 heartbeat IPC: 0.633459 cumulative IPC: 0.547481 (Simulation time: 1 hr 19 min 24 sec) 
Heartbeat CPU 0 instructions: 98000003 cycles: 165978008 heartbeat IPC: 0.635506 cumulative IPC: 0.548344 (Simulation time: 1 hr 19 min 36 sec) 
Heartbeat CPU 0 instructions: 99000000 cycles: 167551923 heartbeat IPC: 0.635356 cumulative IPC: 0.549189 (Simulation time: 1 hr 19 min 48 sec) 
Heartbeat CPU 0 instructions: 100000000 cycles: 169125375 heartbeat IPC: 0.635545 cumulative IPC: 0.55002 (Simulation time: 1 hr 20 min 0 sec) 
Heartbeat CPU 0 instructions: 101000002 cycles: 170701877 heartbeat IPC: 0.634317 cumulative IPC: 0.550824 (Simulation time: 1 hr 20 min 10 sec) 
Heartbeat CPU 0 instructions: 102000000 cycles: 172281378 heartbeat IPC: 0.63311 cumulative IPC: 0.551603 (Simulation time: 1 hr 20 min 20 sec) 
Heartbeat CPU 0 instructions: 103000002 cycles: 173856268 heartbeat IPC: 0.634966 cumulative IPC: 0.552383 (Simulation time: 1 hr 20 min 27 sec) 
Heartbeat CPU 0 instructions: 104000000 cycles: 175432968 heartbeat IPC: 0.634235 cumulative IPC: 0.553143 (Simulation time: 1 hr 20 min 34 sec) 
Heartbeat CPU 0 instructions: 105000003 cycles: 177004501 heartbeat IPC: 0.636323 cumulative IPC: 0.553905 (Simulation time: 1 hr 20 min 41 sec) 
Heartbeat CPU 0 instructions: 106000002 cycles: 178578662 heartbeat IPC: 0.635258 cumulative IPC: 0.554645 (Simulation time: 1 hr 20 min 48 sec) 
Heartbeat CPU 0 instructions: 107000000 cycles: 180157863 heartbeat IPC: 0.63323 cumulative IPC: 0.555355 (Simulation time: 1 hr 20 min 53 sec) 
Heartbeat CPU 0 instructions: 108000000 cycles: 181729762 heartbeat IPC: 0.636173 cumulative IPC: 0.556076 (Simulation time: 1 hr 20 min 59 sec) 
Heartbeat CPU 0 instructions: 109000002 cycles: 183300840 heartbeat IPC: 0.636507 cumulative IPC: 0.556787 (Simulation time: 1 hr 21 min 4 sec) 
Heartbeat CPU 0 instructions: 110000000 cycles: 184874760 heartbeat IPC: 0.635355 cumulative IPC: 0.557476 (Simulation time: 1 hr 21 min 10 sec) 
Finished CPU 0 instructions: 100000003 cycles: 179379850 cummulative IPC: 0.557476 (Simulation time: 1 hr 21 min 10 sec) 

ChampSim completed all CPUs

Region of Interest Statistics

CPU 0 cummulative IPC: 0.557476 instructions: 100000003 cycles: 179379850
LLC TOTAL     ACCESS:    3481386  HIT:      61805  MISS:    3419581
LLC LOAD      ACCESS:    1002064  HIT:         44  MISS:    1002020
LLC RFO       ACCESS:     140009  HIT:          0  MISS:     140009
LLC PREFETCH  ACCESS:    1596642  HIT:       9863  MISS:    1586779
LLC WRITEBACK ACCESS:     742671  HIT:      51898  MISS:     690773
Insertion Distribution: 
	LOAD 0 0 76404 1029909 
	RFO 0 0 20593 119418 
	PREF 0 0 178154 1528520 
	WRITEBACK 0 0 0 756882 
Total Prefetch Downgrades: 3
