
*** ChampSim Multicore Out-of-Order Simulator ***

Warmup Instructions: 10000000
Simulation Instructions: 100000000
Configuration: 2
Number of CPUs: 1
LLC sets: 2048
LLC ways: 16
Off-chip DRAM Channels: 1 Width: 64-bit Data Rate: 1600 MT/s

CPU 0 runs /datasets/cs240c-wi22-a00-public/data/Assignment2-gz/wrf_1212B.trace.gz
CPU 0 L1D next line prefetcher
CPU 0 L2C IP-based stride prefetcher
Initialize SRRIP state
Heartbeat CPU 0 instructions: 1000001 cycles: 598660 heartbeat IPC: 1.6704 cumulative IPC: 1.6704 (Simulation time: 0 hr 0 min 42 sec) 
Heartbeat CPU 0 instructions: 2000000 cycles: 1197118 heartbeat IPC: 1.67096 cumulative IPC: 1.67068 (Simulation time: 0 hr 1 min 23 sec) 
Heartbeat CPU 0 instructions: 3000001 cycles: 1795976 heartbeat IPC: 1.66985 cumulative IPC: 1.6704 (Simulation time: 0 hr 2 min 4 sec) 
Heartbeat CPU 0 instructions: 4000000 cycles: 2394087 heartbeat IPC: 1.67193 cumulative IPC: 1.67078 (Simulation time: 0 hr 2 min 48 sec) 
Heartbeat CPU 0 instructions: 5000000 cycles: 2993053 heartbeat IPC: 1.66954 cumulative IPC: 1.67054 (Simulation time: 0 hr 3 min 28 sec) 
Heartbeat CPU 0 instructions: 6000001 cycles: 3592667 heartbeat IPC: 1.66774 cumulative IPC: 1.67007 (Simulation time: 0 hr 4 min 11 sec) 
Heartbeat CPU 0 instructions: 7000001 cycles: 4190665 heartbeat IPC: 1.67225 cumulative IPC: 1.67038 (Simulation time: 0 hr 4 min 53 sec) 
Heartbeat CPU 0 instructions: 8000000 cycles: 4788873 heartbeat IPC: 1.67166 cumulative IPC: 1.67054 (Simulation time: 0 hr 5 min 35 sec) 
Heartbeat CPU 0 instructions: 9000002 cycles: 5387792 heartbeat IPC: 1.66968 cumulative IPC: 1.67044 (Simulation time: 0 hr 6 min 16 sec) 
Heartbeat CPU 0 instructions: 10000001 cycles: 5987357 heartbeat IPC: 1.66787 cumulative IPC: 1.67019 (Simulation time: 0 hr 7 min 1 sec) 

Warmup complete CPU 0 instructions: 10000001 cycles: 5987357 (Simulation time: 0 hr 7 min 1 sec) 

Heartbeat CPU 0 instructions: 11000003 cycles: 7743719 heartbeat IPC: 0.56936 cumulative IPC: 0.56936 (Simulation time: 0 hr 7 min 52 sec) 
Heartbeat CPU 0 instructions: 12000000 cycles: 9513320 heartbeat IPC: 0.565097 cumulative IPC: 0.567221 (Simulation time: 0 hr 8 min 42 sec) 
Heartbeat CPU 0 instructions: 13000000 cycles: 11298746 heartbeat IPC: 0.56009 cumulative IPC: 0.564824 (Simulation time: 0 hr 9 min 32 sec) 
Heartbeat CPU 0 instructions: 14000002 cycles: 13082020 heartbeat IPC: 0.560767 cumulative IPC: 0.563804 (Simulation time: 0 hr 10 min 24 sec) 
Heartbeat CPU 0 instructions: 15000003 cycles: 14873145 heartbeat IPC: 0.558309 cumulative IPC: 0.562697 (Simulation time: 0 hr 11 min 16 sec) 
Heartbeat CPU 0 instructions: 16000000 cycles: 16621152 heartbeat IPC: 0.572078 cumulative IPC: 0.564239 (Simulation time: 0 hr 12 min 6 sec) 
Heartbeat CPU 0 instructions: 17000000 cycles: 18402583 heartbeat IPC: 0.561346 cumulative IPC: 0.563824 (Simulation time: 0 hr 12 min 57 sec) 
Heartbeat CPU 0 instructions: 18000000 cycles: 20184008 heartbeat IPC: 0.561348 cumulative IPC: 0.563513 (Simulation time: 0 hr 13 min 47 sec) 
Heartbeat CPU 0 instructions: 19000003 cycles: 21962577 heartbeat IPC: 0.562251 cumulative IPC: 0.563373 (Simulation time: 0 hr 14 min 38 sec) 
Heartbeat CPU 0 instructions: 20000000 cycles: 23710870 heartbeat IPC: 0.571985 cumulative IPC: 0.564222 (Simulation time: 0 hr 15 min 28 sec) 
Heartbeat CPU 0 instructions: 21000001 cycles: 25477486 heartbeat IPC: 0.566055 cumulative IPC: 0.564388 (Simulation time: 0 hr 16 min 20 sec) 
Heartbeat CPU 0 instructions: 22000001 cycles: 27260244 heartbeat IPC: 0.560929 cumulative IPC: 0.564098 (Simulation time: 0 hr 17 min 9 sec) 
Heartbeat CPU 0 instructions: 23000000 cycles: 29046641 heartbeat IPC: 0.559785 cumulative IPC: 0.563764 (Simulation time: 0 hr 17 min 52 sec) 
Heartbeat CPU 0 instructions: 24000000 cycles: 30828344 heartbeat IPC: 0.561261 cumulative IPC: 0.563585 (Simulation time: 0 hr 18 min 35 sec) 
Heartbeat CPU 0 instructions: 25000002 cycles: 32575404 heartbeat IPC: 0.572391 cumulative IPC: 0.564163 (Simulation time: 0 hr 19 min 16 sec) 
Heartbeat CPU 0 instructions: 26000000 cycles: 34357448 heartbeat IPC: 0.561152 cumulative IPC: 0.563974 (Simulation time: 0 hr 20 min 4 sec) 
Heartbeat CPU 0 instructions: 27000000 cycles: 36139500 heartbeat IPC: 0.561151 cumulative IPC: 0.563807 (Simulation time: 0 hr 20 min 46 sec) 
Heartbeat CPU 0 instructions: 28000000 cycles: 37918192 heartbeat IPC: 0.562211 cumulative IPC: 0.563718 (Simulation time: 0 hr 21 min 37 sec) 
Heartbeat CPU 0 instructions: 29000000 cycles: 39667555 heartbeat IPC: 0.571637 cumulative IPC: 0.56413 (Simulation time: 0 hr 22 min 28 sec) 
Heartbeat CPU 0 instructions: 30000003 cycles: 41428560 heartbeat IPC: 0.567859 cumulative IPC: 0.564315 (Simulation time: 0 hr 23 min 14 sec) 
Heartbeat CPU 0 instructions: 31000000 cycles: 43211294 heartbeat IPC: 0.560934 cumulative IPC: 0.564153 (Simulation time: 0 hr 24 min 4 sec) 
Heartbeat CPU 0 instructions: 32000000 cycles: 44992750 heartbeat IPC: 0.561339 cumulative IPC: 0.564025 (Simulation time: 0 hr 24 min 52 sec) 
Heartbeat CPU 0 instructions: 33000000 cycles: 46776985 heartbeat IPC: 0.560464 cumulative IPC: 0.563869 (Simulation time: 0 hr 25 min 43 sec) 
Heartbeat CPU 0 instructions: 34000000 cycles: 48515525 heartbeat IPC: 0.575195 cumulative IPC: 0.564332 (Simulation time: 0 hr 26 min 31 sec) 
Heartbeat CPU 0 instructions: 35000003 cycles: 50298765 heartbeat IPC: 0.560779 cumulative IPC: 0.564189 (Simulation time: 0 hr 27 min 19 sec) 
Heartbeat CPU 0 instructions: 36000000 cycles: 52079431 heartbeat IPC: 0.561586 cumulative IPC: 0.564088 (Simulation time: 0 hr 28 min 11 sec) 
Heartbeat CPU 0 instructions: 37000001 cycles: 53863122 heartbeat IPC: 0.560636 cumulative IPC: 0.56396 (Simulation time: 0 hr 29 min 3 sec) 
Heartbeat CPU 0 instructions: 38000000 cycles: 55614661 heartbeat IPC: 0.570926 cumulative IPC: 0.564206 (Simulation time: 0 hr 29 min 53 sec) 
Heartbeat CPU 0 instructions: 39000000 cycles: 57369460 heartbeat IPC: 0.569866 cumulative IPC: 0.564399 (Simulation time: 0 hr 30 min 42 sec) 
Heartbeat CPU 0 instructions: 40000000 cycles: 59150824 heartbeat IPC: 0.561368 cumulative IPC: 0.564297 (Simulation time: 0 hr 31 min 35 sec) 
Heartbeat CPU 0 instructions: 41000001 cycles: 60932848 heartbeat IPC: 0.56116 cumulative IPC: 0.564196 (Simulation time: 0 hr 32 min 27 sec) 
Heartbeat CPU 0 instructions: 42000003 cycles: 62716248 heartbeat IPC: 0.560728 cumulative IPC: 0.564086 (Simulation time: 0 hr 33 min 19 sec) 
Heartbeat CPU 0 instructions: 43000001 cycles: 64444023 heartbeat IPC: 0.578778 cumulative IPC: 0.564521 (Simulation time: 0 hr 34 min 10 sec) 
Heartbeat CPU 0 instructions: 44000000 cycles: 66225306 heartbeat IPC: 0.561393 cumulative IPC: 0.564428 (Simulation time: 0 hr 35 min 1 sec) 
Heartbeat CPU 0 instructions: 45000001 cycles: 68005968 heartbeat IPC: 0.561589 cumulative IPC: 0.564347 (Simulation time: 0 hr 35 min 52 sec) 
Heartbeat CPU 0 instructions: 46000001 cycles: 69785139 heartbeat IPC: 0.56206 cumulative IPC: 0.564283 (Simulation time: 0 hr 36 min 46 sec) 
Heartbeat CPU 0 instructions: 47000000 cycles: 71538367 heartbeat IPC: 0.570376 cumulative IPC: 0.564446 (Simulation time: 0 hr 37 min 36 sec) 
Heartbeat CPU 0 instructions: 48000000 cycles: 73279791 heartbeat IPC: 0.574243 cumulative IPC: 0.564699 (Simulation time: 0 hr 38 min 26 sec) 
Heartbeat CPU 0 instructions: 49000002 cycles: 75061957 heartbeat IPC: 0.561116 cumulative IPC: 0.564607 (Simulation time: 0 hr 39 min 18 sec) 
Heartbeat CPU 0 instructions: 50000002 cycles: 76842383 heartbeat IPC: 0.561663 cumulative IPC: 0.564533 (Simulation time: 0 hr 40 min 9 sec) 
Heartbeat CPU 0 instructions: 51000002 cycles: 78642624 heartbeat IPC: 0.555481 cumulative IPC: 0.564309 (Simulation time: 0 hr 41 min 0 sec) 
Heartbeat CPU 0 instructions: 52000000 cycles: 80366232 heartbeat IPC: 0.580177 cumulative IPC: 0.564676 (Simulation time: 0 hr 41 min 49 sec) 
Heartbeat CPU 0 instructions: 53000002 cycles: 82133730 heartbeat IPC: 0.565773 cumulative IPC: 0.564702 (Simulation time: 0 hr 42 min 42 sec) 
Heartbeat CPU 0 instructions: 54000001 cycles: 83913977 heartbeat IPC: 0.561719 cumulative IPC: 0.564634 (Simulation time: 0 hr 43 min 35 sec) 
Heartbeat CPU 0 instructions: 55000000 cycles: 85693731 heartbeat IPC: 0.561875 cumulative IPC: 0.564572 (Simulation time: 0 hr 44 min 28 sec) 
Heartbeat CPU 0 instructions: 56000000 cycles: 87468064 heartbeat IPC: 0.563592 cumulative IPC: 0.564551 (Simulation time: 0 hr 45 min 20 sec) 
Heartbeat CPU 0 instructions: 57000001 cycles: 89194161 heartbeat IPC: 0.579342 cumulative IPC: 0.564858 (Simulation time: 0 hr 46 min 12 sec) 
Heartbeat CPU 0 instructions: 58000001 cycles: 90976399 heartbeat IPC: 0.561092 cumulative IPC: 0.564779 (Simulation time: 0 hr 47 min 4 sec) 
Heartbeat CPU 0 instructions: 59000000 cycles: 92758741 heartbeat IPC: 0.561059 cumulative IPC: 0.564702 (Simulation time: 0 hr 47 min 56 sec) 
Heartbeat CPU 0 instructions: 60000000 cycles: 94542773 heartbeat IPC: 0.560528 cumulative IPC: 0.564618 (Simulation time: 0 hr 48 min 50 sec) 
Heartbeat CPU 0 instructions: 61000001 cycles: 96283176 heartbeat IPC: 0.57458 cumulative IPC: 0.56481 (Simulation time: 0 hr 49 min 40 sec) 
Heartbeat CPU 0 instructions: 62000001 cycles: 98025901 heartbeat IPC: 0.573814 cumulative IPC: 0.564981 (Simulation time: 0 hr 50 min 32 sec) 
Heartbeat CPU 0 instructions: 63000002 cycles: 99812031 heartbeat IPC: 0.55987 cumulative IPC: 0.564883 (Simulation time: 0 hr 51 min 24 sec) 
Heartbeat CPU 0 instructions: 64000000 cycles: 101594515 heartbeat IPC: 0.561014 cumulative IPC: 0.564811 (Simulation time: 0 hr 52 min 15 sec) 
Heartbeat CPU 0 instructions: 65000000 cycles: 103382419 heartbeat IPC: 0.559314 cumulative IPC: 0.56471 (Simulation time: 0 hr 53 min 11 sec) 
Heartbeat CPU 0 instructions: 66000001 cycles: 105096315 heartbeat IPC: 0.583467 cumulative IPC: 0.565035 (Simulation time: 0 hr 54 min 3 sec) 
Heartbeat CPU 0 instructions: 67000002 cycles: 106853021 heartbeat IPC: 0.569248 cumulative IPC: 0.565108 (Simulation time: 0 hr 54 min 58 sec) 
Heartbeat CPU 0 instructions: 68000000 cycles: 108638587 heartbeat IPC: 0.560045 cumulative IPC: 0.56502 (Simulation time: 0 hr 55 min 51 sec) 
Heartbeat CPU 0 instructions: 69000001 cycles: 110421154 heartbeat IPC: 0.560989 cumulative IPC: 0.564951 (Simulation time: 0 hr 56 min 43 sec) 
Heartbeat CPU 0 instructions: 70000000 cycles: 112189791 heartbeat IPC: 0.565407 cumulative IPC: 0.564959 (Simulation time: 0 hr 57 min 34 sec) 
Heartbeat CPU 0 instructions: 71000001 cycles: 113905047 heartbeat IPC: 0.583004 cumulative IPC: 0.565246 (Simulation time: 0 hr 58 min 25 sec) 
Heartbeat CPU 0 instructions: 72000000 cycles: 115681603 heartbeat IPC: 0.562886 cumulative IPC: 0.565207 (Simulation time: 0 hr 59 min 13 sec) 
Heartbeat CPU 0 instructions: 73000001 cycles: 117469196 heartbeat IPC: 0.559412 cumulative IPC: 0.565114 (Simulation time: 1 hr 0 min 5 sec) 
Heartbeat CPU 0 instructions: 74000000 cycles: 119248698 heartbeat IPC: 0.561954 cumulative IPC: 0.565065 (Simulation time: 1 hr 0 min 55 sec) 
Heartbeat CPU 0 instructions: 75000002 cycles: 121005724 heartbeat IPC: 0.569145 cumulative IPC: 0.565127 (Simulation time: 1 hr 1 min 41 sec) 
Heartbeat CPU 0 instructions: 76000000 cycles: 122739747 heartbeat IPC: 0.576692 cumulative IPC: 0.565299 (Simulation time: 1 hr 2 min 30 sec) 
Heartbeat CPU 0 instructions: 77000003 cycles: 124517146 heartbeat IPC: 0.562622 cumulative IPC: 0.565259 (Simulation time: 1 hr 3 min 21 sec) 
Heartbeat CPU 0 instructions: 78000000 cycles: 126298945 heartbeat IPC: 0.561229 cumulative IPC: 0.565199 (Simulation time: 1 hr 4 min 8 sec) 
Heartbeat CPU 0 instructions: 79000000 cycles: 128097119 heartbeat IPC: 0.55612 cumulative IPC: 0.565065 (Simulation time: 1 hr 4 min 55 sec) 
Heartbeat CPU 0 instructions: 80000000 cycles: 129815141 heartbeat IPC: 0.582065 cumulative IPC: 0.565301 (Simulation time: 1 hr 5 min 42 sec) 
Heartbeat CPU 0 instructions: 81000003 cycles: 131581506 heartbeat IPC: 0.566136 cumulative IPC: 0.565313 (Simulation time: 1 hr 6 min 30 sec) 
Heartbeat CPU 0 instructions: 82000002 cycles: 133371224 heartbeat IPC: 0.558747 cumulative IPC: 0.565221 (Simulation time: 1 hr 7 min 13 sec) 
Heartbeat CPU 0 instructions: 83000001 cycles: 135156606 heartbeat IPC: 0.560104 cumulative IPC: 0.56515 (Simulation time: 1 hr 7 min 52 sec) 
Heartbeat CPU 0 instructions: 84000000 cycles: 136931957 heartbeat IPC: 0.563268 cumulative IPC: 0.565124 (Simulation time: 1 hr 8 min 30 sec) 
Heartbeat CPU 0 instructions: 85000000 cycles: 138649483 heartbeat IPC: 0.582233 cumulative IPC: 0.565346 (Simulation time: 1 hr 9 min 5 sec) 
Heartbeat CPU 0 instructions: 86000001 cycles: 140435518 heartbeat IPC: 0.5599 cumulative IPC: 0.565274 (Simulation time: 1 hr 9 min 41 sec) 
Heartbeat CPU 0 instructions: 87000000 cycles: 142217697 heartbeat IPC: 0.56111 cumulative IPC: 0.565219 (Simulation time: 1 hr 10 min 17 sec) 
Heartbeat CPU 0 instructions: 88000000 cycles: 143994303 heartbeat IPC: 0.562871 cumulative IPC: 0.565189 (Simulation time: 1 hr 10 min 50 sec) 
Heartbeat CPU 0 instructions: 89000000 cycles: 145745858 heartbeat IPC: 0.570921 cumulative IPC: 0.565261 (Simulation time: 1 hr 11 min 23 sec) 
Heartbeat CPU 0 instructions: 90000000 cycles: 147501290 heartbeat IPC: 0.56966 cumulative IPC: 0.565315 (Simulation time: 1 hr 11 min 59 sec) 
Heartbeat CPU 0 instructions: 91000001 cycles: 149280890 heartbeat IPC: 0.561925 cumulative IPC: 0.565273 (Simulation time: 1 hr 12 min 35 sec) 
Heartbeat CPU 0 instructions: 92000000 cycles: 151064174 heartbeat IPC: 0.560763 cumulative IPC: 0.565218 (Simulation time: 1 hr 13 min 11 sec) 
Heartbeat CPU 0 instructions: 93000003 cycles: 152847796 heartbeat IPC: 0.560659 cumulative IPC: 0.565162 (Simulation time: 1 hr 13 min 44 sec) 
Heartbeat CPU 0 instructions: 94000001 cycles: 154574316 heartbeat IPC: 0.579199 cumulative IPC: 0.565325 (Simulation time: 1 hr 14 min 13 sec) 
Heartbeat CPU 0 instructions: 95000001 cycles: 156355328 heartbeat IPC: 0.561479 cumulative IPC: 0.56528 (Simulation time: 1 hr 14 min 46 sec) 
Heartbeat CPU 0 instructions: 96000000 cycles: 158135565 heartbeat IPC: 0.561722 cumulative IPC: 0.565238 (Simulation time: 1 hr 15 min 16 sec) 
Heartbeat CPU 0 instructions: 97000000 cycles: 159915883 heartbeat IPC: 0.561697 cumulative IPC: 0.565197 (Simulation time: 1 hr 15 min 44 sec) 
Heartbeat CPU 0 instructions: 98000000 cycles: 161676970 heartbeat IPC: 0.567831 cumulative IPC: 0.565227 (Simulation time: 1 hr 16 min 10 sec) 
Heartbeat CPU 0 instructions: 99000000 cycles: 163430917 heartbeat IPC: 0.570143 cumulative IPC: 0.565282 (Simulation time: 1 hr 16 min 36 sec) 
Heartbeat CPU 0 instructions: 100000000 cycles: 165209388 heartbeat IPC: 0.562281 cumulative IPC: 0.565248 (Simulation time: 1 hr 17 min 2 sec) 
Heartbeat CPU 0 instructions: 101000000 cycles: 166986993 heartbeat IPC: 0.562555 cumulative IPC: 0.565219 (Simulation time: 1 hr 17 min 24 sec) 
Heartbeat CPU 0 instructions: 102000003 cycles: 168774876 heartbeat IPC: 0.559322 cumulative IPC: 0.565154 (Simulation time: 1 hr 17 min 45 sec) 
Heartbeat CPU 0 instructions: 103000001 cycles: 170506564 heartbeat IPC: 0.57747 cumulative IPC: 0.565284 (Simulation time: 1 hr 18 min 4 sec) 
Heartbeat CPU 0 instructions: 104000000 cycles: 172291588 heartbeat IPC: 0.560216 cumulative IPC: 0.565229 (Simulation time: 1 hr 18 min 23 sec) 
Heartbeat CPU 0 instructions: 105000002 cycles: 174071401 heartbeat IPC: 0.561858 cumulative IPC: 0.565193 (Simulation time: 1 hr 18 min 41 sec) 
Heartbeat CPU 0 instructions: 106000001 cycles: 175849052 heartbeat IPC: 0.56254 cumulative IPC: 0.565166 (Simulation time: 1 hr 18 min 58 sec) 
Heartbeat CPU 0 instructions: 107000003 cycles: 177607499 heartbeat IPC: 0.568685 cumulative IPC: 0.565202 (Simulation time: 1 hr 19 min 14 sec) 
Heartbeat CPU 0 instructions: 108000000 cycles: 179373346 heartbeat IPC: 0.566299 cumulative IPC: 0.565213 (Simulation time: 1 hr 19 min 30 sec) 
Heartbeat CPU 0 instructions: 109000002 cycles: 181157469 heartbeat IPC: 0.560501 cumulative IPC: 0.565165 (Simulation time: 1 hr 19 min 45 sec) 
Heartbeat CPU 0 instructions: 110000003 cycles: 182936263 heartbeat IPC: 0.562179 cumulative IPC: 0.565135 (Simulation time: 1 hr 19 min 58 sec) 
Finished CPU 0 instructions: 100000002 cycles: 176948906 cummulative IPC: 0.565135 (Simulation time: 1 hr 19 min 58 sec) 

ChampSim completed all CPUs

Region of Interest Statistics

CPU 0 cummulative IPC: 0.565135 instructions: 100000002 cycles: 176948906
LLC TOTAL     ACCESS:     134715  HIT:      36533  MISS:      98182
LLC LOAD      ACCESS:      14854  HIT:       4249  MISS:      10605
LLC RFO       ACCESS:       1238  HIT:        334  MISS:        904
LLC PREFETCH  ACCESS:      79526  HIT:       9884  MISS:      69642
LLC WRITEBACK ACCESS:      39097  HIT:      22066  MISS:      17031
Insertion Distribution: 
	LOAD 0 0 10738 1519 
	RFO 0 0 1172 58 
	PREF 0 0 35567 42271 
	WRITEBACK 0 0 0 17031 
Total Prefetch Downgrades: 322
