
*** ChampSim Multicore Out-of-Order Simulator ***

Warmup Instructions: 10000000
Simulation Instructions: 100000000
Configuration: 2
Number of CPUs: 1
LLC sets: 2048
LLC ways: 16
Off-chip DRAM Channels: 1 Width: 64-bit Data Rate: 1600 MT/s

CPU 0 runs /datasets/cs240c-wi22-a00-public/data/Assignment2-gz/GemsFDTD_716B.trace.gz
CPU 0 L1D next line prefetcher
CPU 0 L2C IP-based stride prefetcher
Initialize SRRIP state
Heartbeat CPU 0 instructions: 1000000 cycles: 415045 heartbeat IPC: 2.40938 cumulative IPC: 2.40938 (Simulation time: 0 hr 0 min 41 sec) 
Heartbeat CPU 0 instructions: 2000003 cycles: 829979 heartbeat IPC: 2.41003 cumulative IPC: 2.4097 (Simulation time: 0 hr 1 min 19 sec) 
Heartbeat CPU 0 instructions: 3000000 cycles: 1280233 heartbeat IPC: 2.22096 cumulative IPC: 2.34332 (Simulation time: 0 hr 1 min 54 sec) 
Heartbeat CPU 0 instructions: 4000000 cycles: 1737265 heartbeat IPC: 2.18803 cumulative IPC: 2.30247 (Simulation time: 0 hr 2 min 27 sec) 
Heartbeat CPU 0 instructions: 5000000 cycles: 2152246 heartbeat IPC: 2.40975 cumulative IPC: 2.32315 (Simulation time: 0 hr 3 min 2 sec) 
Heartbeat CPU 0 instructions: 6000000 cycles: 2567262 heartbeat IPC: 2.40955 cumulative IPC: 2.33712 (Simulation time: 0 hr 3 min 37 sec) 
Heartbeat CPU 0 instructions: 7000000 cycles: 2982265 heartbeat IPC: 2.40962 cumulative IPC: 2.34721 (Simulation time: 0 hr 4 min 14 sec) 
Heartbeat CPU 0 instructions: 8000000 cycles: 3395192 heartbeat IPC: 2.42174 cumulative IPC: 2.35627 (Simulation time: 0 hr 4 min 50 sec) 
Heartbeat CPU 0 instructions: 9000003 cycles: 3840383 heartbeat IPC: 2.24623 cumulative IPC: 2.34352 (Simulation time: 0 hr 5 min 31 sec) 
Heartbeat CPU 0 instructions: 10000002 cycles: 4355005 heartbeat IPC: 1.94317 cumulative IPC: 2.29621 (Simulation time: 0 hr 6 min 22 sec) 

Warmup complete CPU 0 instructions: 10000002 cycles: 4355005 (Simulation time: 0 hr 6 min 22 sec) 

Heartbeat CPU 0 instructions: 11000000 cycles: 7812791 heartbeat IPC: 0.289202 cumulative IPC: 0.289202 (Simulation time: 0 hr 7 min 37 sec) 
Heartbeat CPU 0 instructions: 12000000 cycles: 11274227 heartbeat IPC: 0.288897 cumulative IPC: 0.28905 (Simulation time: 0 hr 8 min 48 sec) 
Heartbeat CPU 0 instructions: 13000000 cycles: 14744353 heartbeat IPC: 0.288174 cumulative IPC: 0.288757 (Simulation time: 0 hr 10 min 1 sec) 
Heartbeat CPU 0 instructions: 14000000 cycles: 18373694 heartbeat IPC: 0.275532 cumulative IPC: 0.285333 (Simulation time: 0 hr 11 min 12 sec) 
Heartbeat CPU 0 instructions: 15000000 cycles: 22111958 heartbeat IPC: 0.267504 cumulative IPC: 0.28158 (Simulation time: 0 hr 12 min 24 sec) 
Heartbeat CPU 0 instructions: 16000000 cycles: 25859585 heartbeat IPC: 0.266836 cumulative IPC: 0.27901 (Simulation time: 0 hr 13 min 41 sec) 
Heartbeat CPU 0 instructions: 17000002 cycles: 29611677 heartbeat IPC: 0.266519 cumulative IPC: 0.277154 (Simulation time: 0 hr 14 min 55 sec) 
Heartbeat CPU 0 instructions: 18000003 cycles: 33347770 heartbeat IPC: 0.26766 cumulative IPC: 0.275931 (Simulation time: 0 hr 16 min 9 sec) 
Heartbeat CPU 0 instructions: 19000000 cycles: 37083030 heartbeat IPC: 0.267718 cumulative IPC: 0.274994 (Simulation time: 0 hr 17 min 18 sec) 
Heartbeat CPU 0 instructions: 20000000 cycles: 39780244 heartbeat IPC: 0.370753 cumulative IPC: 0.282285 (Simulation time: 0 hr 18 min 17 sec) 
Heartbeat CPU 0 instructions: 21000000 cycles: 42080922 heartbeat IPC: 0.434654 cumulative IPC: 0.291577 (Simulation time: 0 hr 19 min 11 sec) 
Heartbeat CPU 0 instructions: 22000000 cycles: 44355711 heartbeat IPC: 0.439601 cumulative IPC: 0.299995 (Simulation time: 0 hr 19 min 59 sec) 
Heartbeat CPU 0 instructions: 23000000 cycles: 46626989 heartbeat IPC: 0.440281 cumulative IPC: 0.307532 (Simulation time: 0 hr 20 min 41 sec) 
Heartbeat CPU 0 instructions: 24000000 cycles: 48926397 heartbeat IPC: 0.434895 cumulative IPC: 0.314103 (Simulation time: 0 hr 21 min 38 sec) 
Heartbeat CPU 0 instructions: 25000002 cycles: 51229793 heartbeat IPC: 0.434142 cumulative IPC: 0.320001 (Simulation time: 0 hr 22 min 39 sec) 
Heartbeat CPU 0 instructions: 26000002 cycles: 53205770 heartbeat IPC: 0.506079 cumulative IPC: 0.327528 (Simulation time: 0 hr 23 min 36 sec) 
Heartbeat CPU 0 instructions: 27000002 cycles: 55171150 heartbeat IPC: 0.508807 cumulative IPC: 0.334539 (Simulation time: 0 hr 24 min 33 sec) 
Heartbeat CPU 0 instructions: 28000000 cycles: 57016094 heartbeat IPC: 0.542021 cumulative IPC: 0.341808 (Simulation time: 0 hr 25 min 32 sec) 
Heartbeat CPU 0 instructions: 29000003 cycles: 58898143 heartbeat IPC: 0.531337 cumulative IPC: 0.348348 (Simulation time: 0 hr 26 min 29 sec) 
Heartbeat CPU 0 instructions: 30000002 cycles: 60795381 heartbeat IPC: 0.527081 cumulative IPC: 0.354356 (Simulation time: 0 hr 27 min 27 sec) 
Heartbeat CPU 0 instructions: 31000002 cycles: 62223567 heartbeat IPC: 0.700189 cumulative IPC: 0.362891 (Simulation time: 0 hr 28 min 22 sec) 
Heartbeat CPU 0 instructions: 32000000 cycles: 63624296 heartbeat IPC: 0.713913 cumulative IPC: 0.371187 (Simulation time: 0 hr 29 min 16 sec) 
Heartbeat CPU 0 instructions: 33000000 cycles: 65034376 heartbeat IPC: 0.70918 cumulative IPC: 0.379041 (Simulation time: 0 hr 30 min 10 sec) 
Heartbeat CPU 0 instructions: 34000001 cycles: 66445835 heartbeat IPC: 0.708487 cumulative IPC: 0.38653 (Simulation time: 0 hr 31 min 3 sec) 
Heartbeat CPU 0 instructions: 35000001 cycles: 67847828 heartbeat IPC: 0.71327 cumulative IPC: 0.393745 (Simulation time: 0 hr 32 min 0 sec) 
Heartbeat CPU 0 instructions: 36000000 cycles: 69325151 heartbeat IPC: 0.676899 cumulative IPC: 0.400184 (Simulation time: 0 hr 32 min 56 sec) 
Heartbeat CPU 0 instructions: 37000002 cycles: 70892341 heartbeat IPC: 0.638086 cumulative IPC: 0.405787 (Simulation time: 0 hr 33 min 52 sec) 
Heartbeat CPU 0 instructions: 38000002 cycles: 72316325 heartbeat IPC: 0.702255 cumulative IPC: 0.411999 (Simulation time: 0 hr 34 min 49 sec) 
Heartbeat CPU 0 instructions: 39000000 cycles: 73759341 heartbeat IPC: 0.692992 cumulative IPC: 0.417841 (Simulation time: 0 hr 35 min 44 sec) 
Heartbeat CPU 0 instructions: 40000000 cycles: 75190796 heartbeat IPC: 0.69859 cumulative IPC: 0.423515 (Simulation time: 0 hr 36 min 40 sec) 
Heartbeat CPU 0 instructions: 41000003 cycles: 76623671 heartbeat IPC: 0.6979 cumulative IPC: 0.428955 (Simulation time: 0 hr 37 min 36 sec) 
Heartbeat CPU 0 instructions: 42000000 cycles: 78049071 heartbeat IPC: 0.701555 cumulative IPC: 0.434228 (Simulation time: 0 hr 38 min 32 sec) 
Heartbeat CPU 0 instructions: 43000002 cycles: 80954825 heartbeat IPC: 0.344145 cumulative IPC: 0.43081 (Simulation time: 0 hr 39 min 40 sec) 
Heartbeat CPU 0 instructions: 44000000 cycles: 84407651 heartbeat IPC: 0.289617 cumulative IPC: 0.42472 (Simulation time: 0 hr 40 min 52 sec) 
Heartbeat CPU 0 instructions: 45000003 cycles: 87854451 heartbeat IPC: 0.290125 cumulative IPC: 0.419164 (Simulation time: 0 hr 42 min 3 sec) 
Heartbeat CPU 0 instructions: 46000000 cycles: 91303355 heartbeat IPC: 0.289946 cumulative IPC: 0.414039 (Simulation time: 0 hr 43 min 14 sec) 
Heartbeat CPU 0 instructions: 47000000 cycles: 94748691 heartbeat IPC: 0.290247 cumulative IPC: 0.409321 (Simulation time: 0 hr 44 min 26 sec) 
Heartbeat CPU 0 instructions: 48000000 cycles: 98392745 heartbeat IPC: 0.27442 cumulative IPC: 0.404093 (Simulation time: 0 hr 45 min 40 sec) 
Heartbeat CPU 0 instructions: 49000000 cycles: 102100875 heartbeat IPC: 0.269678 cumulative IPC: 0.398994 (Simulation time: 0 hr 46 min 53 sec) 
Heartbeat CPU 0 instructions: 50000001 cycles: 105820594 heartbeat IPC: 0.268838 cumulative IPC: 0.394222 (Simulation time: 0 hr 48 min 9 sec) 
Heartbeat CPU 0 instructions: 51000003 cycles: 109542871 heartbeat IPC: 0.268653 cumulative IPC: 0.389779 (Simulation time: 0 hr 49 min 24 sec) 
Heartbeat CPU 0 instructions: 52000000 cycles: 113253013 heartbeat IPC: 0.269531 cumulative IPC: 0.385682 (Simulation time: 0 hr 50 min 39 sec) 
Heartbeat CPU 0 instructions: 53000000 cycles: 117027440 heartbeat IPC: 0.264941 cumulative IPC: 0.381637 (Simulation time: 0 hr 51 min 58 sec) 
Heartbeat CPU 0 instructions: 54000001 cycles: 118904464 heartbeat IPC: 0.532759 cumulative IPC: 0.384114 (Simulation time: 0 hr 53 min 0 sec) 
Heartbeat CPU 0 instructions: 55000002 cycles: 120789495 heartbeat IPC: 0.530496 cumulative IPC: 0.386483 (Simulation time: 0 hr 54 min 1 sec) 
Heartbeat CPU 0 instructions: 56000000 cycles: 122721140 heartbeat IPC: 0.517692 cumulative IPC: 0.388625 (Simulation time: 0 hr 55 min 3 sec) 
Heartbeat CPU 0 instructions: 57000002 cycles: 124638897 heartbeat IPC: 0.521444 cumulative IPC: 0.390742 (Simulation time: 0 hr 56 min 5 sec) 
Heartbeat CPU 0 instructions: 58000001 cycles: 126486585 heartbeat IPC: 0.541216 cumulative IPC: 0.393019 (Simulation time: 0 hr 57 min 5 sec) 
Heartbeat CPU 0 instructions: 59000002 cycles: 128332673 heartbeat IPC: 0.541687 cumulative IPC: 0.395232 (Simulation time: 0 hr 58 min 4 sec) 
Heartbeat CPU 0 instructions: 60000000 cycles: 129949426 heartbeat IPC: 0.618522 cumulative IPC: 0.398107 (Simulation time: 0 hr 59 min 2 sec) 
Heartbeat CPU 0 instructions: 61000002 cycles: 131570644 heartbeat IPC: 0.616821 cumulative IPC: 0.400894 (Simulation time: 0 hr 59 min 59 sec) 
Heartbeat CPU 0 instructions: 62000000 cycles: 133200297 heartbeat IPC: 0.613626 cumulative IPC: 0.403585 (Simulation time: 1 hr 0 min 54 sec) 
Heartbeat CPU 0 instructions: 63000000 cycles: 134843979 heartbeat IPC: 0.60839 cumulative IPC: 0.406165 (Simulation time: 1 hr 1 min 48 sec) 
Heartbeat CPU 0 instructions: 64000000 cycles: 136475726 heartbeat IPC: 0.61284 cumulative IPC: 0.408717 (Simulation time: 1 hr 2 min 42 sec) 
Heartbeat CPU 0 instructions: 65000001 cycles: 137890099 heartbeat IPC: 0.707028 cumulative IPC: 0.411877 (Simulation time: 1 hr 3 min 35 sec) 
Heartbeat CPU 0 instructions: 66000003 cycles: 139305198 heartbeat IPC: 0.706666 cumulative IPC: 0.414968 (Simulation time: 1 hr 4 min 23 sec) 
Heartbeat CPU 0 instructions: 67000003 cycles: 140719270 heartbeat IPC: 0.707178 cumulative IPC: 0.417998 (Simulation time: 1 hr 5 min 15 sec) 
Heartbeat CPU 0 instructions: 68000000 cycles: 142124254 heartbeat IPC: 0.71175 cumulative IPC: 0.420994 (Simulation time: 1 hr 6 min 9 sec) 
Heartbeat CPU 0 instructions: 69000002 cycles: 143533759 heartbeat IPC: 0.70947 cumulative IPC: 0.423915 (Simulation time: 1 hr 6 min 55 sec) 
Heartbeat CPU 0 instructions: 70000000 cycles: 145102065 heartbeat IPC: 0.637629 cumulative IPC: 0.426297 (Simulation time: 1 hr 7 min 41 sec) 
Heartbeat CPU 0 instructions: 71000000 cycles: 146523930 heartbeat IPC: 0.703302 cumulative IPC: 0.429067 (Simulation time: 1 hr 8 min 22 sec) 
Heartbeat CPU 0 instructions: 72000000 cycles: 147944117 heartbeat IPC: 0.704133 cumulative IPC: 0.431788 (Simulation time: 1 hr 9 min 1 sec) 
Heartbeat CPU 0 instructions: 73000002 cycles: 149369142 heartbeat IPC: 0.701743 cumulative IPC: 0.43444 (Simulation time: 1 hr 9 min 40 sec) 
Heartbeat CPU 0 instructions: 74000000 cycles: 150800366 heartbeat IPC: 0.698701 cumulative IPC: 0.437023 (Simulation time: 1 hr 10 min 18 sec) 
Heartbeat CPU 0 instructions: 75000000 cycles: 152229655 heartbeat IPC: 0.699649 cumulative IPC: 0.439561 (Simulation time: 1 hr 10 min 56 sec) 
Heartbeat CPU 0 instructions: 76000000 cycles: 153651724 heartbeat IPC: 0.703201 cumulative IPC: 0.442073 (Simulation time: 1 hr 11 min 32 sec) 
Heartbeat CPU 0 instructions: 77000001 cycles: 157015238 heartbeat IPC: 0.297308 cumulative IPC: 0.438883 (Simulation time: 1 hr 12 min 17 sec) 
Heartbeat CPU 0 instructions: 78000000 cycles: 160519160 heartbeat IPC: 0.285394 cumulative IPC: 0.435439 (Simulation time: 1 hr 13 min 5 sec) 
Heartbeat CPU 0 instructions: 79000002 cycles: 164013698 heartbeat IPC: 0.286161 cumulative IPC: 0.432172 (Simulation time: 1 hr 13 min 49 sec) 
Heartbeat CPU 0 instructions: 80000000 cycles: 167513144 heartbeat IPC: 0.285759 cumulative IPC: 0.429032 (Simulation time: 1 hr 14 min 32 sec) 
Heartbeat CPU 0 instructions: 81000000 cycles: 171012096 heartbeat IPC: 0.2858 cumulative IPC: 0.426024 (Simulation time: 1 hr 15 min 16 sec) 
Heartbeat CPU 0 instructions: 82000002 cycles: 174748825 heartbeat IPC: 0.267614 cumulative IPC: 0.422551 (Simulation time: 1 hr 15 min 55 sec) 
Heartbeat CPU 0 instructions: 83000002 cycles: 178482211 heartbeat IPC: 0.267853 cumulative IPC: 0.419234 (Simulation time: 1 hr 16 min 32 sec) 
Heartbeat CPU 0 instructions: 84000000 cycles: 182230005 heartbeat IPC: 0.266823 cumulative IPC: 0.416022 (Simulation time: 1 hr 17 min 9 sec) 
Heartbeat CPU 0 instructions: 85000000 cycles: 185974594 heartbeat IPC: 0.267052 cumulative IPC: 0.412951 (Simulation time: 1 hr 17 min 38 sec) 
Heartbeat CPU 0 instructions: 86000000 cycles: 189726273 heartbeat IPC: 0.266547 cumulative IPC: 0.409988 (Simulation time: 1 hr 18 min 5 sec) 
Heartbeat CPU 0 instructions: 87000000 cycles: 193114209 heartbeat IPC: 0.295165 cumulative IPC: 0.407927 (Simulation time: 1 hr 18 min 30 sec) 
Heartbeat CPU 0 instructions: 88000000 cycles: 194825637 heartbeat IPC: 0.584307 cumulative IPC: 0.409512 (Simulation time: 1 hr 18 min 51 sec) 
Heartbeat CPU 0 instructions: 89000001 cycles: 196507055 heartbeat IPC: 0.594737 cumulative IPC: 0.411133 (Simulation time: 1 hr 19 min 10 sec) 
Heartbeat CPU 0 instructions: 90000001 cycles: 198194880 heartbeat IPC: 0.592479 cumulative IPC: 0.412712 (Simulation time: 1 hr 19 min 28 sec) 
Heartbeat CPU 0 instructions: 91000001 cycles: 199889308 heartbeat IPC: 0.59017 cumulative IPC: 0.41425 (Simulation time: 1 hr 19 min 45 sec) 
Heartbeat CPU 0 instructions: 92000000 cycles: 201579662 heartbeat IPC: 0.591591 cumulative IPC: 0.41577 (Simulation time: 1 hr 20 min 0 sec) 
Heartbeat CPU 0 instructions: 93000002 cycles: 203256977 heartbeat IPC: 0.596192 cumulative IPC: 0.417291 (Simulation time: 1 hr 20 min 14 sec) 
Heartbeat CPU 0 instructions: 94000001 cycles: 204755860 heartbeat IPC: 0.667163 cumulative IPC: 0.41916 (Simulation time: 1 hr 20 min 26 sec) 
Heartbeat CPU 0 instructions: 95000000 cycles: 206251037 heartbeat IPC: 0.668816 cumulative IPC: 0.421009 (Simulation time: 1 hr 20 min 35 sec) 
Heartbeat CPU 0 instructions: 96000000 cycles: 207746457 heartbeat IPC: 0.668708 cumulative IPC: 0.42283 (Simulation time: 1 hr 20 min 44 sec) 
Heartbeat CPU 0 instructions: 97000001 cycles: 209242859 heartbeat IPC: 0.66827 cumulative IPC: 0.424623 (Simulation time: 1 hr 20 min 52 sec) 
Heartbeat CPU 0 instructions: 98000000 cycles: 210832370 heartbeat IPC: 0.629124 cumulative IPC: 0.426197 (Simulation time: 1 hr 20 min 59 sec) 
Heartbeat CPU 0 instructions: 99000001 cycles: 212271190 heartbeat IPC: 0.695015 cumulative IPC: 0.428057 (Simulation time: 1 hr 21 min 6 sec) 
Heartbeat CPU 0 instructions: 100000000 cycles: 213708050 heartbeat IPC: 0.695961 cumulative IPC: 0.429896 (Simulation time: 1 hr 21 min 12 sec) 
Heartbeat CPU 0 instructions: 101000002 cycles: 215141090 heartbeat IPC: 0.697819 cumulative IPC: 0.431717 (Simulation time: 1 hr 21 min 18 sec) 
Heartbeat CPU 0 instructions: 102000003 cycles: 216575141 heartbeat IPC: 0.697326 cumulative IPC: 0.433512 (Simulation time: 1 hr 21 min 25 sec) 
Heartbeat CPU 0 instructions: 103000001 cycles: 218004849 heartbeat IPC: 0.699442 cumulative IPC: 0.435292 (Simulation time: 1 hr 21 min 31 sec) 
Heartbeat CPU 0 instructions: 104000000 cycles: 219583961 heartbeat IPC: 0.633267 cumulative IPC: 0.436744 (Simulation time: 1 hr 21 min 37 sec) 
Heartbeat CPU 0 instructions: 105000003 cycles: 221030277 heartbeat IPC: 0.691414 cumulative IPC: 0.438444 (Simulation time: 1 hr 21 min 44 sec) 
Heartbeat CPU 0 instructions: 106000001 cycles: 222478273 heartbeat IPC: 0.690608 cumulative IPC: 0.440118 (Simulation time: 1 hr 21 min 50 sec) 
Heartbeat CPU 0 instructions: 107000001 cycles: 223932679 heartbeat IPC: 0.687566 cumulative IPC: 0.441757 (Simulation time: 1 hr 21 min 56 sec) 
Heartbeat CPU 0 instructions: 108000000 cycles: 225378203 heartbeat IPC: 0.69179 cumulative IPC: 0.443392 (Simulation time: 1 hr 22 min 2 sec) 
Heartbeat CPU 0 instructions: 109000000 cycles: 226817448 heartbeat IPC: 0.694809 cumulative IPC: 0.445019 (Simulation time: 1 hr 22 min 8 sec) 
Heartbeat CPU 0 instructions: 110000002 cycles: 228563070 heartbeat IPC: 0.572863 cumulative IPC: 0.446014 (Simulation time: 1 hr 22 min 14 sec) 
Finished CPU 0 instructions: 100000000 cycles: 224208065 cummulative IPC: 0.446014 (Simulation time: 1 hr 22 min 14 sec) 

ChampSim completed all CPUs

Region of Interest Statistics

CPU 0 cummulative IPC: 0.446014 instructions: 100000000 cycles: 224208065
LLC TOTAL     ACCESS:   13008136  HIT:   10697470  MISS:    2310666
LLC LOAD      ACCESS:    5288989  HIT:    4385655  MISS:     903334
LLC RFO       ACCESS:          0  HIT:          0  MISS:          0
LLC PREFETCH  ACCESS:    6806449  HIT:    5402428  MISS:    1404021
LLC WRITEBACK ACCESS:     912698  HIT:     909387  MISS:       3311
Insertion Distribution: 
	LOAD 120637 0 40956 783981 
	RFO 4 0 14499 0 
	PREF 0 591310 104225 779045 
	WRITEBACK 0 0 0 4797 
Total Prefetch Downgrades: 555858
