
*** ChampSim Multicore Out-of-Order Simulator ***

Warmup Instructions: 10000000
Simulation Instructions: 100000000
Configuration: 2
Number of CPUs: 1
LLC sets: 2048
LLC ways: 16
Off-chip DRAM Channels: 1 Width: 64-bit Data Rate: 1600 MT/s

CPU 0 runs /datasets/cs240c-wi22-a00-public/data/Assignment2-gz/perlbench_135B.trace.gz
CPU 0 L1D next line prefetcher
CPU 0 L2C IP-based stride prefetcher
Initialize SRRIP state
Heartbeat CPU 0 instructions: 1000000 cycles: 600033 heartbeat IPC: 1.66657 cumulative IPC: 1.66657 (Simulation time: 0 hr 0 min 45 sec) 
Heartbeat CPU 0 instructions: 2000000 cycles: 1209304 heartbeat IPC: 1.64131 cumulative IPC: 1.65384 (Simulation time: 0 hr 1 min 32 sec) 
Heartbeat CPU 0 instructions: 3000000 cycles: 1832837 heartbeat IPC: 1.60376 cumulative IPC: 1.63681 (Simulation time: 0 hr 2 min 18 sec) 
Heartbeat CPU 0 instructions: 4000000 cycles: 2492645 heartbeat IPC: 1.51559 cumulative IPC: 1.60472 (Simulation time: 0 hr 3 min 7 sec) 
Heartbeat CPU 0 instructions: 5000001 cycles: 3079308 heartbeat IPC: 1.70456 cumulative IPC: 1.62374 (Simulation time: 0 hr 3 min 50 sec) 
Heartbeat CPU 0 instructions: 6000002 cycles: 3681733 heartbeat IPC: 1.65996 cumulative IPC: 1.62967 (Simulation time: 0 hr 4 min 35 sec) 
Heartbeat CPU 0 instructions: 7000001 cycles: 4282494 heartbeat IPC: 1.66455 cumulative IPC: 1.63456 (Simulation time: 0 hr 5 min 19 sec) 
Heartbeat CPU 0 instructions: 8000000 cycles: 4892986 heartbeat IPC: 1.63802 cumulative IPC: 1.63499 (Simulation time: 0 hr 6 min 3 sec) 
Heartbeat CPU 0 instructions: 9000001 cycles: 5534102 heartbeat IPC: 1.55978 cumulative IPC: 1.62628 (Simulation time: 0 hr 6 min 47 sec) 
Heartbeat CPU 0 instructions: 10000000 cycles: 6192789 heartbeat IPC: 1.51817 cumulative IPC: 1.61478 (Simulation time: 0 hr 7 min 33 sec) 

Warmup complete CPU 0 instructions: 10000004 cycles: 6192790 (Simulation time: 0 hr 7 min 33 sec) 

Heartbeat CPU 0 instructions: 11000003 cycles: 8935305 heartbeat IPC: 0.36463 cumulative IPC: 0.364628 (Simulation time: 0 hr 8 min 35 sec) 
Heartbeat CPU 0 instructions: 12000000 cycles: 11272843 heartbeat IPC: 0.427799 cumulative IPC: 0.393696 (Simulation time: 0 hr 9 min 32 sec) 
Heartbeat CPU 0 instructions: 13000000 cycles: 13823469 heartbeat IPC: 0.392061 cumulative IPC: 0.393149 (Simulation time: 0 hr 10 min 29 sec) 
Heartbeat CPU 0 instructions: 14000000 cycles: 16830822 heartbeat IPC: 0.332518 cumulative IPC: 0.376009 (Simulation time: 0 hr 11 min 22 sec) 
Heartbeat CPU 0 instructions: 15000003 cycles: 19509808 heartbeat IPC: 0.373277 cumulative IPC: 0.375459 (Simulation time: 0 hr 12 min 14 sec) 
Heartbeat CPU 0 instructions: 16000000 cycles: 22145151 heartbeat IPC: 0.379456 cumulative IPC: 0.37612 (Simulation time: 0 hr 13 min 7 sec) 
Heartbeat CPU 0 instructions: 17000000 cycles: 24848482 heartbeat IPC: 0.369914 cumulative IPC: 0.37522 (Simulation time: 0 hr 13 min 59 sec) 
Heartbeat CPU 0 instructions: 18000000 cycles: 27532220 heartbeat IPC: 0.372615 cumulative IPC: 0.374893 (Simulation time: 0 hr 14 min 53 sec) 
Heartbeat CPU 0 instructions: 19000003 cycles: 30164426 heartbeat IPC: 0.379911 cumulative IPC: 0.375444 (Simulation time: 0 hr 15 min 45 sec) 
Heartbeat CPU 0 instructions: 20000000 cycles: 32802991 heartbeat IPC: 0.378993 cumulative IPC: 0.375796 (Simulation time: 0 hr 16 min 37 sec) 
Heartbeat CPU 0 instructions: 21000000 cycles: 35429770 heartbeat IPC: 0.380694 cumulative IPC: 0.376236 (Simulation time: 0 hr 17 min 28 sec) 
Heartbeat CPU 0 instructions: 22000002 cycles: 38057712 heartbeat IPC: 0.380527 cumulative IPC: 0.37659 (Simulation time: 0 hr 18 min 21 sec) 
Heartbeat CPU 0 instructions: 23000003 cycles: 40716131 heartbeat IPC: 0.376164 cumulative IPC: 0.376557 (Simulation time: 0 hr 19 min 22 sec) 
Heartbeat CPU 0 instructions: 24000000 cycles: 42812159 heartbeat IPC: 0.477091 cumulative IPC: 0.382311 (Simulation time: 0 hr 20 min 11 sec) 
Heartbeat CPU 0 instructions: 25000000 cycles: 45418313 heartbeat IPC: 0.383707 cumulative IPC: 0.382404 (Simulation time: 0 hr 21 min 9 sec) 
Heartbeat CPU 0 instructions: 26000001 cycles: 47977975 heartbeat IPC: 0.390677 cumulative IPC: 0.382911 (Simulation time: 0 hr 22 min 7 sec) 
Heartbeat CPU 0 instructions: 27000000 cycles: 50646698 heartbeat IPC: 0.374711 cumulative IPC: 0.382418 (Simulation time: 0 hr 23 min 0 sec) 
Heartbeat CPU 0 instructions: 28000000 cycles: 53287597 heartbeat IPC: 0.378659 cumulative IPC: 0.382208 (Simulation time: 0 hr 23 min 49 sec) 
Heartbeat CPU 0 instructions: 29000000 cycles: 55914677 heartbeat IPC: 0.380651 cumulative IPC: 0.382125 (Simulation time: 0 hr 24 min 40 sec) 
Heartbeat CPU 0 instructions: 30000000 cycles: 58630491 heartbeat IPC: 0.368214 cumulative IPC: 0.381405 (Simulation time: 0 hr 25 min 36 sec) 
Heartbeat CPU 0 instructions: 31000001 cycles: 61267718 heartbeat IPC: 0.379187 cumulative IPC: 0.381299 (Simulation time: 0 hr 26 min 30 sec) 
Heartbeat CPU 0 instructions: 32000000 cycles: 63918809 heartbeat IPC: 0.377203 cumulative IPC: 0.381111 (Simulation time: 0 hr 27 min 25 sec) 
Heartbeat CPU 0 instructions: 33000000 cycles: 66546498 heartbeat IPC: 0.380563 cumulative IPC: 0.381087 (Simulation time: 0 hr 28 min 18 sec) 
Heartbeat CPU 0 instructions: 34000001 cycles: 69156089 heartbeat IPC: 0.383202 cumulative IPC: 0.381174 (Simulation time: 0 hr 29 min 13 sec) 
Heartbeat CPU 0 instructions: 35000003 cycles: 71806971 heartbeat IPC: 0.377234 cumulative IPC: 0.381015 (Simulation time: 0 hr 30 min 9 sec) 
Heartbeat CPU 0 instructions: 36000000 cycles: 74110248 heartbeat IPC: 0.434163 cumulative IPC: 0.382818 (Simulation time: 0 hr 31 min 4 sec) 
Heartbeat CPU 0 instructions: 37000000 cycles: 76398690 heartbeat IPC: 0.436979 cumulative IPC: 0.384583 (Simulation time: 0 hr 32 min 2 sec) 
Heartbeat CPU 0 instructions: 38000000 cycles: 78486231 heartbeat IPC: 0.479033 cumulative IPC: 0.38731 (Simulation time: 0 hr 32 min 55 sec) 
Heartbeat CPU 0 instructions: 39000000 cycles: 80781330 heartbeat IPC: 0.435711 cumulative IPC: 0.3888 (Simulation time: 0 hr 33 min 48 sec) 
Heartbeat CPU 0 instructions: 40000000 cycles: 82734713 heartbeat IPC: 0.511932 cumulative IPC: 0.391942 (Simulation time: 0 hr 34 min 34 sec) 
Heartbeat CPU 0 instructions: 41000001 cycles: 84814660 heartbeat IPC: 0.480782 cumulative IPC: 0.394292 (Simulation time: 0 hr 35 min 23 sec) 
Heartbeat CPU 0 instructions: 42000003 cycles: 87450009 heartbeat IPC: 0.379457 cumulative IPC: 0.393811 (Simulation time: 0 hr 36 min 20 sec) 
Heartbeat CPU 0 instructions: 43000001 cycles: 90012498 heartbeat IPC: 0.390245 cumulative IPC: 0.393702 (Simulation time: 0 hr 37 min 21 sec) 
Heartbeat CPU 0 instructions: 44000000 cycles: 92306955 heartbeat IPC: 0.435833 cumulative IPC: 0.394825 (Simulation time: 0 hr 38 min 16 sec) 
Heartbeat CPU 0 instructions: 45000003 cycles: 94941875 heartbeat IPC: 0.379519 cumulative IPC: 0.39437 (Simulation time: 0 hr 39 min 12 sec) 
Heartbeat CPU 0 instructions: 46000003 cycles: 97613256 heartbeat IPC: 0.374338 cumulative IPC: 0.393785 (Simulation time: 0 hr 40 min 4 sec) 
Heartbeat CPU 0 instructions: 47000000 cycles: 100240393 heartbeat IPC: 0.380641 cumulative IPC: 0.393418 (Simulation time: 0 hr 40 min 59 sec) 
Heartbeat CPU 0 instructions: 48000000 cycles: 102853914 heartbeat IPC: 0.382626 cumulative IPC: 0.393126 (Simulation time: 0 hr 41 min 51 sec) 
Heartbeat CPU 0 instructions: 49000000 cycles: 105520947 heartbeat IPC: 0.374949 cumulative IPC: 0.392638 (Simulation time: 0 hr 42 min 43 sec) 
Heartbeat CPU 0 instructions: 50000001 cycles: 108146531 heartbeat IPC: 0.380868 cumulative IPC: 0.392335 (Simulation time: 0 hr 43 min 37 sec) 
Heartbeat CPU 0 instructions: 51000000 cycles: 110765258 heartbeat IPC: 0.381865 cumulative IPC: 0.392073 (Simulation time: 0 hr 44 min 33 sec) 
Heartbeat CPU 0 instructions: 52000000 cycles: 113375903 heartbeat IPC: 0.383047 cumulative IPC: 0.391853 (Simulation time: 0 hr 45 min 26 sec) 
Heartbeat CPU 0 instructions: 53000000 cycles: 115960013 heartbeat IPC: 0.38698 cumulative IPC: 0.391738 (Simulation time: 0 hr 46 min 17 sec) 
Heartbeat CPU 0 instructions: 54000001 cycles: 118598668 heartbeat IPC: 0.378981 cumulative IPC: 0.391439 (Simulation time: 0 hr 47 min 8 sec) 
Heartbeat CPU 0 instructions: 55000001 cycles: 121045760 heartbeat IPC: 0.408648 cumulative IPC: 0.391805 (Simulation time: 0 hr 48 min 8 sec) 
Heartbeat CPU 0 instructions: 56000000 cycles: 123170693 heartbeat IPC: 0.470603 cumulative IPC: 0.393237 (Simulation time: 0 hr 49 min 1 sec) 
Heartbeat CPU 0 instructions: 57000000 cycles: 125371962 heartbeat IPC: 0.454283 cumulative IPC: 0.394364 (Simulation time: 0 hr 49 min 52 sec) 
Heartbeat CPU 0 instructions: 58000002 cycles: 127319751 heartbeat IPC: 0.513404 cumulative IPC: 0.396278 (Simulation time: 0 hr 50 min 40 sec) 
Heartbeat CPU 0 instructions: 59000003 cycles: 129439875 heartbeat IPC: 0.471671 cumulative IPC: 0.397575 (Simulation time: 0 hr 51 min 30 sec) 
Heartbeat CPU 0 instructions: 60000000 cycles: 132404355 heartbeat IPC: 0.337326 cumulative IPC: 0.39616 (Simulation time: 0 hr 52 min 19 sec) 
Heartbeat CPU 0 instructions: 61000000 cycles: 134818019 heartbeat IPC: 0.414308 cumulative IPC: 0.396501 (Simulation time: 0 hr 53 min 9 sec) 
Heartbeat CPU 0 instructions: 62000001 cycles: 137608301 heartbeat IPC: 0.358387 cumulative IPC: 0.395691 (Simulation time: 0 hr 54 min 1 sec) 
Heartbeat CPU 0 instructions: 63000000 cycles: 140550683 heartbeat IPC: 0.33986 cumulative IPC: 0.394469 (Simulation time: 0 hr 54 min 57 sec) 
Heartbeat CPU 0 instructions: 64000000 cycles: 143512835 heartbeat IPC: 0.337592 cumulative IPC: 0.393242 (Simulation time: 0 hr 55 min 46 sec) 
Heartbeat CPU 0 instructions: 65000001 cycles: 146406637 heartbeat IPC: 0.345566 cumulative IPC: 0.392258 (Simulation time: 0 hr 56 min 39 sec) 
Heartbeat CPU 0 instructions: 66000001 cycles: 149267970 heartbeat IPC: 0.349487 cumulative IPC: 0.391403 (Simulation time: 0 hr 57 min 30 sec) 
Heartbeat CPU 0 instructions: 67000001 cycles: 151988134 heartbeat IPC: 0.367625 cumulative IPC: 0.390959 (Simulation time: 0 hr 58 min 18 sec) 
Heartbeat CPU 0 instructions: 68000000 cycles: 154719768 heartbeat IPC: 0.366081 cumulative IPC: 0.390501 (Simulation time: 0 hr 59 min 7 sec) 
Heartbeat CPU 0 instructions: 69000002 cycles: 157669897 heartbeat IPC: 0.338969 cumulative IPC: 0.389498 (Simulation time: 1 hr 0 min 1 sec) 
Heartbeat CPU 0 instructions: 70000003 cycles: 159475577 heartbeat IPC: 0.553809 cumulative IPC: 0.391433 (Simulation time: 1 hr 0 min 43 sec) 
Heartbeat CPU 0 instructions: 71000000 cycles: 161395322 heartbeat IPC: 0.520901 cumulative IPC: 0.393035 (Simulation time: 1 hr 1 min 24 sec) 
Heartbeat CPU 0 instructions: 72000000 cycles: 163382549 heartbeat IPC: 0.503214 cumulative IPC: 0.394428 (Simulation time: 1 hr 2 min 6 sec) 
Heartbeat CPU 0 instructions: 73000000 cycles: 165651748 heartbeat IPC: 0.440684 cumulative IPC: 0.395086 (Simulation time: 1 hr 2 min 53 sec) 
Heartbeat CPU 0 instructions: 74000000 cycles: 167570294 heartbeat IPC: 0.521228 cumulative IPC: 0.396586 (Simulation time: 1 hr 3 min 34 sec) 
Heartbeat CPU 0 instructions: 75000003 cycles: 169803629 heartbeat IPC: 0.447762 cumulative IPC: 0.397284 (Simulation time: 1 hr 4 min 17 sec) 
Heartbeat CPU 0 instructions: 76000000 cycles: 172542566 heartbeat IPC: 0.365104 cumulative IPC: 0.396754 (Simulation time: 1 hr 5 min 1 sec) 
Heartbeat CPU 0 instructions: 77000000 cycles: 175234689 heartbeat IPC: 0.371454 cumulative IPC: 0.396351 (Simulation time: 1 hr 5 min 50 sec) 
Heartbeat CPU 0 instructions: 78000000 cycles: 178181282 heartbeat IPC: 0.339375 cumulative IPC: 0.395375 (Simulation time: 1 hr 6 min 40 sec) 
Heartbeat CPU 0 instructions: 79000000 cycles: 180037627 heartbeat IPC: 0.538693 cumulative IPC: 0.396906 (Simulation time: 1 hr 7 min 19 sec) 
Heartbeat CPU 0 instructions: 80000000 cycles: 181821875 heartbeat IPC: 0.56046 cumulative IPC: 0.398567 (Simulation time: 1 hr 7 min 52 sec) 
Heartbeat CPU 0 instructions: 81000000 cycles: 183743271 heartbeat IPC: 0.520455 cumulative IPC: 0.399886 (Simulation time: 1 hr 8 min 25 sec) 
Heartbeat CPU 0 instructions: 82000000 cycles: 185660810 heartbeat IPC: 0.521502 cumulative IPC: 0.401186 (Simulation time: 1 hr 8 min 57 sec) 
Heartbeat CPU 0 instructions: 83000000 cycles: 187986408 heartbeat IPC: 0.429997 cumulative IPC: 0.401554 (Simulation time: 1 hr 9 min 32 sec) 
Heartbeat CPU 0 instructions: 84000000 cycles: 189940259 heartbeat IPC: 0.51181 cumulative IPC: 0.402727 (Simulation time: 1 hr 10 min 5 sec) 
Heartbeat CPU 0 instructions: 85000000 cycles: 191861383 heartbeat IPC: 0.520529 cumulative IPC: 0.403946 (Simulation time: 1 hr 10 min 34 sec) 
Heartbeat CPU 0 instructions: 86000002 cycles: 193779912 heartbeat IPC: 0.521234 cumulative IPC: 0.405145 (Simulation time: 1 hr 11 min 4 sec) 
Heartbeat CPU 0 instructions: 87000003 cycles: 195944286 heartbeat IPC: 0.462028 cumulative IPC: 0.405794 (Simulation time: 1 hr 11 min 32 sec) 
Heartbeat CPU 0 instructions: 88000000 cycles: 198713459 heartbeat IPC: 0.361118 cumulative IPC: 0.405151 (Simulation time: 1 hr 12 min 5 sec) 
Heartbeat CPU 0 instructions: 89000003 cycles: 201279087 heartbeat IPC: 0.389769 cumulative IPC: 0.404949 (Simulation time: 1 hr 12 min 38 sec) 
Heartbeat CPU 0 instructions: 90000001 cycles: 204150526 heartbeat IPC: 0.348257 cumulative IPC: 0.404127 (Simulation time: 1 hr 13 min 12 sec) 
Heartbeat CPU 0 instructions: 91000000 cycles: 206629247 heartbeat IPC: 0.403433 cumulative IPC: 0.404118 (Simulation time: 1 hr 13 min 44 sec) 
Heartbeat CPU 0 instructions: 92000000 cycles: 209081075 heartbeat IPC: 0.407859 cumulative IPC: 0.404163 (Simulation time: 1 hr 14 min 11 sec) 
Heartbeat CPU 0 instructions: 93000000 cycles: 211773708 heartbeat IPC: 0.371384 cumulative IPC: 0.403734 (Simulation time: 1 hr 14 min 39 sec) 
Heartbeat CPU 0 instructions: 94000001 cycles: 214432025 heartbeat IPC: 0.376178 cumulative IPC: 0.403382 (Simulation time: 1 hr 15 min 9 sec) 
Heartbeat CPU 0 instructions: 95000000 cycles: 217277860 heartbeat IPC: 0.35139 cumulative IPC: 0.402681 (Simulation time: 1 hr 15 min 38 sec) 
Heartbeat CPU 0 instructions: 96000000 cycles: 220330600 heartbeat IPC: 0.327575 cumulative IPC: 0.401611 (Simulation time: 1 hr 16 min 7 sec) 
Heartbeat CPU 0 instructions: 97000001 cycles: 223270402 heartbeat IPC: 0.340159 cumulative IPC: 0.400778 (Simulation time: 1 hr 16 min 36 sec) 
Heartbeat CPU 0 instructions: 98000000 cycles: 225927695 heartbeat IPC: 0.376322 cumulative IPC: 0.400483 (Simulation time: 1 hr 17 min 1 sec) 
Heartbeat CPU 0 instructions: 99000000 cycles: 228526244 heartbeat IPC: 0.38483 cumulative IPC: 0.4003 (Simulation time: 1 hr 17 min 24 sec) 
Heartbeat CPU 0 instructions: 100000000 cycles: 231150092 heartbeat IPC: 0.38112 cumulative IPC: 0.400076 (Simulation time: 1 hr 17 min 45 sec) 
Heartbeat CPU 0 instructions: 101000001 cycles: 233752181 heartbeat IPC: 0.384307 cumulative IPC: 0.399896 (Simulation time: 1 hr 18 min 4 sec) 
Heartbeat CPU 0 instructions: 102000000 cycles: 236380978 heartbeat IPC: 0.380402 cumulative IPC: 0.399673 (Simulation time: 1 hr 18 min 22 sec) 
Heartbeat CPU 0 instructions: 103000000 cycles: 239029872 heartbeat IPC: 0.377516 cumulative IPC: 0.399421 (Simulation time: 1 hr 18 min 43 sec) 
Heartbeat CPU 0 instructions: 104000000 cycles: 241761011 heartbeat IPC: 0.366148 cumulative IPC: 0.399035 (Simulation time: 1 hr 18 min 59 sec) 
Heartbeat CPU 0 instructions: 105000001 cycles: 244365133 heartbeat IPC: 0.384007 cumulative IPC: 0.398871 (Simulation time: 1 hr 19 min 15 sec) 
Heartbeat CPU 0 instructions: 106000001 cycles: 246983027 heartbeat IPC: 0.381986 cumulative IPC: 0.398687 (Simulation time: 1 hr 19 min 30 sec) 
Heartbeat CPU 0 instructions: 107000000 cycles: 249597692 heartbeat IPC: 0.382458 cumulative IPC: 0.398513 (Simulation time: 1 hr 19 min 45 sec) 
Heartbeat CPU 0 instructions: 108000000 cycles: 252208612 heartbeat IPC: 0.383007 cumulative IPC: 0.398348 (Simulation time: 1 hr 19 min 58 sec) 
Heartbeat CPU 0 instructions: 109000001 cycles: 254782435 heartbeat IPC: 0.388527 cumulative IPC: 0.398247 (Simulation time: 1 hr 20 min 11 sec) 
Heartbeat CPU 0 instructions: 110000003 cycles: 256935930 heartbeat IPC: 0.464362 cumulative IPC: 0.398814 (Simulation time: 1 hr 20 min 21 sec) 
Finished CPU 0 instructions: 100000003 cycles: 250743141 cummulative IPC: 0.398814 (Simulation time: 1 hr 20 min 21 sec) 

ChampSim completed all CPUs

Region of Interest Statistics

CPU 0 cummulative IPC: 0.398814 instructions: 100000003 cycles: 250743141
LLC TOTAL     ACCESS:     635547  HIT:     575700  MISS:      59847
LLC LOAD      ACCESS:     295077  HIT:     284295  MISS:      10782
LLC RFO       ACCESS:      30364  HIT:      25796  MISS:       4568
LLC PREFETCH  ACCESS:     206826  HIT:     163565  MISS:      43261
LLC WRITEBACK ACCESS:     103280  HIT:     102044  MISS:       1236
Insertion Distribution: 
	LOAD 3532 0 20210 1211 
	RFO 225 0 5417 690 
	PREF 0 621 29549 25972 
	WRITEBACK 0 0 0 1542 
Total Prefetch Downgrades: 3413
