
*** ChampSim Multicore Out-of-Order Simulator ***

Warmup Instructions: 10000000
Simulation Instructions: 100000000
Configuration: 2
Number of CPUs: 1
LLC sets: 2048
LLC ways: 16
Off-chip DRAM Channels: 1 Width: 64-bit Data Rate: 1600 MT/s

CPU 0 runs /datasets/cs240c-wi22-a00-public/data/Assignment2-gz/cactusADM_1495B.trace.gz
CPU 0 L1D next line prefetcher
CPU 0 L2C IP-based stride prefetcher
Initialize SRRIP state
Heartbeat CPU 0 instructions: 1000003 cycles: 593383 heartbeat IPC: 1.68526 cumulative IPC: 1.68526 (Simulation time: 0 hr 0 min 48 sec) 
Heartbeat CPU 0 instructions: 2000000 cycles: 1186345 heartbeat IPC: 1.68644 cumulative IPC: 1.68585 (Simulation time: 0 hr 1 min 36 sec) 
Heartbeat CPU 0 instructions: 3000003 cycles: 1779703 heartbeat IPC: 1.68533 cumulative IPC: 1.68568 (Simulation time: 0 hr 2 min 23 sec) 
Heartbeat CPU 0 instructions: 4000000 cycles: 2372522 heartbeat IPC: 1.68685 cumulative IPC: 1.68597 (Simulation time: 0 hr 3 min 11 sec) 
Heartbeat CPU 0 instructions: 5000000 cycles: 2965579 heartbeat IPC: 1.68618 cumulative IPC: 1.68601 (Simulation time: 0 hr 3 min 57 sec) 
Heartbeat CPU 0 instructions: 6000001 cycles: 3558796 heartbeat IPC: 1.68573 cumulative IPC: 1.68596 (Simulation time: 0 hr 4 min 43 sec) 
Heartbeat CPU 0 instructions: 7000000 cycles: 4151738 heartbeat IPC: 1.6865 cumulative IPC: 1.68604 (Simulation time: 0 hr 5 min 32 sec) 
Heartbeat CPU 0 instructions: 8000000 cycles: 4906778 heartbeat IPC: 1.32443 cumulative IPC: 1.6304 (Simulation time: 0 hr 6 min 34 sec) 
Heartbeat CPU 0 instructions: 9000002 cycles: 5499979 heartbeat IPC: 1.68577 cumulative IPC: 1.63637 (Simulation time: 0 hr 7 min 23 sec) 
Heartbeat CPU 0 instructions: 10000002 cycles: 6092902 heartbeat IPC: 1.68656 cumulative IPC: 1.64125 (Simulation time: 0 hr 8 min 8 sec) 

Warmup complete CPU 0 instructions: 10000002 cycles: 6092902 (Simulation time: 0 hr 8 min 8 sec) 

Heartbeat CPU 0 instructions: 11000000 cycles: 7785489 heartbeat IPC: 0.59081 cumulative IPC: 0.59081 (Simulation time: 0 hr 8 min 56 sec) 
Heartbeat CPU 0 instructions: 12000000 cycles: 9528759 heartbeat IPC: 0.573635 cumulative IPC: 0.582096 (Simulation time: 0 hr 9 min 45 sec) 
Heartbeat CPU 0 instructions: 13000002 cycles: 11273203 heartbeat IPC: 0.57325 cumulative IPC: 0.579117 (Simulation time: 0 hr 10 min 35 sec) 
Heartbeat CPU 0 instructions: 14000001 cycles: 13008882 heartbeat IPC: 0.576143 cumulative IPC: 0.578371 (Simulation time: 0 hr 11 min 24 sec) 
Heartbeat CPU 0 instructions: 15000001 cycles: 14665785 heartbeat IPC: 0.603536 cumulative IPC: 0.583234 (Simulation time: 0 hr 12 min 15 sec) 
Heartbeat CPU 0 instructions: 16000000 cycles: 16387000 heartbeat IPC: 0.580984 cumulative IPC: 0.582858 (Simulation time: 0 hr 13 min 3 sec) 
Heartbeat CPU 0 instructions: 17000003 cycles: 18131213 heartbeat IPC: 0.573326 cumulative IPC: 0.581477 (Simulation time: 0 hr 13 min 49 sec) 
Heartbeat CPU 0 instructions: 18000000 cycles: 19876844 heartbeat IPC: 0.572857 cumulative IPC: 0.580385 (Simulation time: 0 hr 14 min 37 sec) 
Heartbeat CPU 0 instructions: 19000002 cycles: 21587180 heartbeat IPC: 0.584682 cumulative IPC: 0.58086 (Simulation time: 0 hr 15 min 19 sec) 
Heartbeat CPU 0 instructions: 20000000 cycles: 23253480 heartbeat IPC: 0.600131 cumulative IPC: 0.582731 (Simulation time: 0 hr 16 min 1 sec) 
Heartbeat CPU 0 instructions: 21000001 cycles: 29566497 heartbeat IPC: 0.158403 cumulative IPC: 0.468612 (Simulation time: 0 hr 17 min 1 sec) 
Heartbeat CPU 0 instructions: 22000000 cycles: 31656550 heartbeat IPC: 0.478456 cumulative IPC: 0.469416 (Simulation time: 0 hr 17 min 43 sec) 
Heartbeat CPU 0 instructions: 23000001 cycles: 33389124 heartbeat IPC: 0.577177 cumulative IPC: 0.476256 (Simulation time: 0 hr 18 min 19 sec) 
Heartbeat CPU 0 instructions: 24000000 cycles: 35044329 heartbeat IPC: 0.604154 cumulative IPC: 0.483568 (Simulation time: 0 hr 19 min 4 sec) 
Heartbeat CPU 0 instructions: 25000002 cycles: 36770596 heartbeat IPC: 0.579286 cumulative IPC: 0.488955 (Simulation time: 0 hr 19 min 55 sec) 
Heartbeat CPU 0 instructions: 26000000 cycles: 38523423 heartbeat IPC: 0.570506 cumulative IPC: 0.493362 (Simulation time: 0 hr 20 min 34 sec) 
Heartbeat CPU 0 instructions: 27000002 cycles: 40262773 heartbeat IPC: 0.574929 cumulative IPC: 0.497514 (Simulation time: 0 hr 21 min 13 sec) 
Heartbeat CPU 0 instructions: 28000000 cycles: 41970602 heartbeat IPC: 0.585538 cumulative IPC: 0.501704 (Simulation time: 0 hr 21 min 51 sec) 
Heartbeat CPU 0 instructions: 29000003 cycles: 43628095 heartbeat IPC: 0.603323 cumulative IPC: 0.506192 (Simulation time: 0 hr 22 min 32 sec) 
Heartbeat CPU 0 instructions: 30000000 cycles: 45395575 heartbeat IPC: 0.565776 cumulative IPC: 0.508871 (Simulation time: 0 hr 23 min 16 sec) 
Heartbeat CPU 0 instructions: 31000003 cycles: 47136523 heartbeat IPC: 0.574401 cumulative IPC: 0.511651 (Simulation time: 0 hr 24 min 0 sec) 
Heartbeat CPU 0 instructions: 32000000 cycles: 48874967 heartbeat IPC: 0.575225 cumulative IPC: 0.514234 (Simulation time: 0 hr 24 min 42 sec) 
Heartbeat CPU 0 instructions: 33000001 cycles: 50553843 heartbeat IPC: 0.595637 cumulative IPC: 0.517308 (Simulation time: 0 hr 25 min 25 sec) 
Heartbeat CPU 0 instructions: 34000002 cycles: 55972533 heartbeat IPC: 0.184547 cumulative IPC: 0.481158 (Simulation time: 0 hr 26 min 15 sec) 
Heartbeat CPU 0 instructions: 35000002 cycles: 58961997 heartbeat IPC: 0.334508 cumulative IPC: 0.472866 (Simulation time: 0 hr 27 min 3 sec) 
Heartbeat CPU 0 instructions: 36000000 cycles: 60698653 heartbeat IPC: 0.575818 cumulative IPC: 0.47614 (Simulation time: 0 hr 27 min 46 sec) 
Heartbeat CPU 0 instructions: 37000001 cycles: 62412970 heartbeat IPC: 0.583323 cumulative IPC: 0.479403 (Simulation time: 0 hr 28 min 32 sec) 
Heartbeat CPU 0 instructions: 38000003 cycles: 64066909 heartbeat IPC: 0.604618 cumulative IPC: 0.482975 (Simulation time: 0 hr 29 min 19 sec) 
Heartbeat CPU 0 instructions: 39000003 cycles: 65797096 heartbeat IPC: 0.577972 cumulative IPC: 0.485728 (Simulation time: 0 hr 30 min 0 sec) 
Heartbeat CPU 0 instructions: 40000000 cycles: 67535781 heartbeat IPC: 0.575146 cumulative IPC: 0.488258 (Simulation time: 0 hr 30 min 43 sec) 
Heartbeat CPU 0 instructions: 41000002 cycles: 69271760 heartbeat IPC: 0.576045 cumulative IPC: 0.49067 (Simulation time: 0 hr 31 min 27 sec) 
Heartbeat CPU 0 instructions: 42000000 cycles: 70951517 heartbeat IPC: 0.595323 cumulative IPC: 0.493381 (Simulation time: 0 hr 32 min 16 sec) 
Heartbeat CPU 0 instructions: 43000000 cycles: 72632320 heartbeat IPC: 0.594954 cumulative IPC: 0.495947 (Simulation time: 0 hr 33 min 3 sec) 
Heartbeat CPU 0 instructions: 44000000 cycles: 74370143 heartbeat IPC: 0.575433 cumulative IPC: 0.49797 (Simulation time: 0 hr 33 min 43 sec) 
Heartbeat CPU 0 instructions: 45000003 cycles: 76108924 heartbeat IPC: 0.575117 cumulative IPC: 0.499886 (Simulation time: 0 hr 34 min 36 sec) 
Heartbeat CPU 0 instructions: 46000002 cycles: 77839866 heartbeat IPC: 0.57772 cumulative IPC: 0.501763 (Simulation time: 0 hr 35 min 22 sec) 
Heartbeat CPU 0 instructions: 47000002 cycles: 82216441 heartbeat IPC: 0.228489 cumulative IPC: 0.486052 (Simulation time: 0 hr 36 min 20 sec) 
Heartbeat CPU 0 instructions: 48000000 cycles: 86178296 heartbeat IPC: 0.252407 cumulative IPC: 0.474494 (Simulation time: 0 hr 37 min 18 sec) 
Heartbeat CPU 0 instructions: 49000000 cycles: 87914623 heartbeat IPC: 0.575928 cumulative IPC: 0.476646 (Simulation time: 0 hr 38 min 6 sec) 
Heartbeat CPU 0 instructions: 50000000 cycles: 89652208 heartbeat IPC: 0.575511 cumulative IPC: 0.478702 (Simulation time: 0 hr 39 min 0 sec) 
Heartbeat CPU 0 instructions: 51000000 cycles: 91338368 heartbeat IPC: 0.593064 cumulative IPC: 0.480964 (Simulation time: 0 hr 39 min 54 sec) 
Heartbeat CPU 0 instructions: 52000000 cycles: 93016430 heartbeat IPC: 0.595926 cumulative IPC: 0.483183 (Simulation time: 0 hr 40 min 47 sec) 
Heartbeat CPU 0 instructions: 53000003 cycles: 94752253 heartbeat IPC: 0.576097 cumulative IPC: 0.485002 (Simulation time: 0 hr 41 min 40 sec) 
Heartbeat CPU 0 instructions: 54000001 cycles: 96488274 heartbeat IPC: 0.576029 cumulative IPC: 0.486751 (Simulation time: 0 hr 42 min 31 sec) 
Heartbeat CPU 0 instructions: 55000000 cycles: 98222025 heartbeat IPC: 0.576784 cumulative IPC: 0.488445 (Simulation time: 0 hr 43 min 26 sec) 
Heartbeat CPU 0 instructions: 56000000 cycles: 99877703 heartbeat IPC: 0.603982 cumulative IPC: 0.490485 (Simulation time: 0 hr 44 min 21 sec) 
Heartbeat CPU 0 instructions: 57000000 cycles: 101586956 heartbeat IPC: 0.585051 cumulative IPC: 0.492177 (Simulation time: 0 hr 45 min 14 sec) 
Heartbeat CPU 0 instructions: 58000002 cycles: 103325187 heartbeat IPC: 0.575299 cumulative IPC: 0.493663 (Simulation time: 0 hr 46 min 5 sec) 
Heartbeat CPU 0 instructions: 59000001 cycles: 105062968 heartbeat IPC: 0.575446 cumulative IPC: 0.495099 (Simulation time: 0 hr 46 min 56 sec) 
Heartbeat CPU 0 instructions: 60000000 cycles: 108421630 heartbeat IPC: 0.297737 cumulative IPC: 0.488621 (Simulation time: 0 hr 47 min 51 sec) 
Heartbeat CPU 0 instructions: 61000001 cycles: 113393500 heartbeat IPC: 0.201132 cumulative IPC: 0.4753 (Simulation time: 0 hr 48 min 47 sec) 
Heartbeat CPU 0 instructions: 62000000 cycles: 115127819 heartbeat IPC: 0.576595 cumulative IPC: 0.476911 (Simulation time: 0 hr 49 min 38 sec) 
Heartbeat CPU 0 instructions: 63000000 cycles: 116867211 heartbeat IPC: 0.574914 cumulative IPC: 0.47845 (Simulation time: 0 hr 50 min 30 sec) 
Heartbeat CPU 0 instructions: 64000000 cycles: 118599425 heartbeat IPC: 0.577296 cumulative IPC: 0.479972 (Simulation time: 0 hr 51 min 21 sec) 
Heartbeat CPU 0 instructions: 65000002 cycles: 120259845 heartbeat IPC: 0.602258 cumulative IPC: 0.481751 (Simulation time: 0 hr 52 min 9 sec) 
Heartbeat CPU 0 instructions: 66000003 cycles: 121963967 heartbeat IPC: 0.586813 cumulative IPC: 0.483296 (Simulation time: 0 hr 52 min 59 sec) 
Heartbeat CPU 0 instructions: 67000001 cycles: 123702292 heartbeat IPC: 0.575265 cumulative IPC: 0.484655 (Simulation time: 0 hr 53 min 54 sec) 
Heartbeat CPU 0 instructions: 68000000 cycles: 125441747 heartbeat IPC: 0.574892 cumulative IPC: 0.48597 (Simulation time: 0 hr 54 min 50 sec) 
Heartbeat CPU 0 instructions: 69000003 cycles: 127158820 heartbeat IPC: 0.582388 cumulative IPC: 0.487338 (Simulation time: 0 hr 55 min 41 sec) 
Heartbeat CPU 0 instructions: 70000000 cycles: 128812363 heartbeat IPC: 0.60476 cumulative IPC: 0.48892 (Simulation time: 0 hr 56 min 34 sec) 
Heartbeat CPU 0 instructions: 71000002 cycles: 130540861 heartbeat IPC: 0.578538 cumulative IPC: 0.490165 (Simulation time: 0 hr 57 min 23 sec) 
Heartbeat CPU 0 instructions: 72000000 cycles: 132280403 heartbeat IPC: 0.574863 cumulative IPC: 0.491332 (Simulation time: 0 hr 58 min 13 sec) 
Heartbeat CPU 0 instructions: 73000001 cycles: 134748142 heartbeat IPC: 0.40523 cumulative IPC: 0.489681 (Simulation time: 0 hr 58 min 58 sec) 
Heartbeat CPU 0 instructions: 74000002 cycles: 140672167 heartbeat IPC: 0.168804 cumulative IPC: 0.475556 (Simulation time: 0 hr 59 min 54 sec) 
Heartbeat CPU 0 instructions: 75000002 cycles: 142370445 heartbeat IPC: 0.588832 cumulative IPC: 0.476968 (Simulation time: 1 hr 0 min 39 sec) 
Heartbeat CPU 0 instructions: 76000000 cycles: 144109760 heartbeat IPC: 0.574938 cumulative IPC: 0.478202 (Simulation time: 1 hr 1 min 24 sec) 
Heartbeat CPU 0 instructions: 77000001 cycles: 145848648 heartbeat IPC: 0.575081 cumulative IPC: 0.479408 (Simulation time: 1 hr 2 min 11 sec) 
Heartbeat CPU 0 instructions: 78000000 cycles: 147570751 heartbeat IPC: 0.580685 cumulative IPC: 0.480641 (Simulation time: 1 hr 2 min 51 sec) 
Heartbeat CPU 0 instructions: 79000003 cycles: 149217651 heartbeat IPC: 0.607203 cumulative IPC: 0.482097 (Simulation time: 1 hr 3 min 34 sec) 
Heartbeat CPU 0 instructions: 80000000 cycles: 150947689 heartbeat IPC: 0.57802 cumulative IPC: 0.483243 (Simulation time: 1 hr 4 min 16 sec) 
Heartbeat CPU 0 instructions: 81000002 cycles: 152686949 heartbeat IPC: 0.574958 cumulative IPC: 0.484331 (Simulation time: 1 hr 4 min 58 sec) 
Heartbeat CPU 0 instructions: 82000000 cycles: 154426184 heartbeat IPC: 0.574964 cumulative IPC: 0.485393 (Simulation time: 1 hr 5 min 40 sec) 
Heartbeat CPU 0 instructions: 83000000 cycles: 156112801 heartbeat IPC: 0.592903 cumulative IPC: 0.486602 (Simulation time: 1 hr 6 min 22 sec) 
Heartbeat CPU 0 instructions: 84000000 cycles: 157788448 heartbeat IPC: 0.596784 cumulative IPC: 0.487819 (Simulation time: 1 hr 7 min 1 sec) 
Heartbeat CPU 0 instructions: 85000003 cycles: 159550468 heartbeat IPC: 0.567532 cumulative IPC: 0.488734 (Simulation time: 1 hr 7 min 41 sec) 
Heartbeat CPU 0 instructions: 86000000 cycles: 161289478 heartbeat IPC: 0.575038 cumulative IPC: 0.489702 (Simulation time: 1 hr 8 min 19 sec) 
Heartbeat CPU 0 instructions: 87000001 cycles: 168046163 heartbeat IPC: 0.148002 cumulative IPC: 0.475446 (Simulation time: 1 hr 9 min 4 sec) 
Heartbeat CPU 0 instructions: 88000000 cycles: 169692029 heartbeat IPC: 0.607582 cumulative IPC: 0.476775 (Simulation time: 1 hr 9 min 38 sec) 
Heartbeat CPU 0 instructions: 89000002 cycles: 171419073 heartbeat IPC: 0.579025 cumulative IPC: 0.477843 (Simulation time: 1 hr 10 min 12 sec) 
Heartbeat CPU 0 instructions: 90000001 cycles: 173185084 heartbeat IPC: 0.566247 cumulative IPC: 0.478778 (Simulation time: 1 hr 10 min 46 sec) 
Heartbeat CPU 0 instructions: 91000002 cycles: 174922912 heartbeat IPC: 0.575432 cumulative IPC: 0.479773 (Simulation time: 1 hr 11 min 18 sec) 
Heartbeat CPU 0 instructions: 92000000 cycles: 176616706 heartbeat IPC: 0.590389 cumulative IPC: 0.480871 (Simulation time: 1 hr 11 min 48 sec) 
Heartbeat CPU 0 instructions: 93000002 cycles: 178288674 heartbeat IPC: 0.598099 cumulative IPC: 0.48201 (Simulation time: 1 hr 12 min 19 sec) 
Heartbeat CPU 0 instructions: 94000002 cycles: 180023314 heartbeat IPC: 0.576488 cumulative IPC: 0.482952 (Simulation time: 1 hr 12 min 51 sec) 
Heartbeat CPU 0 instructions: 95000003 cycles: 181762753 heartbeat IPC: 0.574899 cumulative IPC: 0.483862 (Simulation time: 1 hr 13 min 25 sec) 
Heartbeat CPU 0 instructions: 96000000 cycles: 183497708 heartbeat IPC: 0.576382 cumulative IPC: 0.484767 (Simulation time: 1 hr 13 min 54 sec) 
Heartbeat CPU 0 instructions: 97000003 cycles: 185159077 heartbeat IPC: 0.601915 cumulative IPC: 0.485854 (Simulation time: 1 hr 14 min 23 sec) 
Heartbeat CPU 0 instructions: 98000003 cycles: 186860848 heartbeat IPC: 0.587623 cumulative IPC: 0.486812 (Simulation time: 1 hr 14 min 52 sec) 
Heartbeat CPU 0 instructions: 99000000 cycles: 188598936 heartbeat IPC: 0.575343 cumulative IPC: 0.487655 (Simulation time: 1 hr 15 min 18 sec) 
Heartbeat CPU 0 instructions: 100000000 cycles: 195366644 heartbeat IPC: 0.147761 cumulative IPC: 0.475502 (Simulation time: 1 hr 15 min 50 sec) 
Heartbeat CPU 0 instructions: 101000000 cycles: 197064326 heartbeat IPC: 0.589038 cumulative IPC: 0.476511 (Simulation time: 1 hr 16 min 17 sec) 
Heartbeat CPU 0 instructions: 102000003 cycles: 198731467 heartbeat IPC: 0.599831 cumulative IPC: 0.477578 (Simulation time: 1 hr 16 min 44 sec) 
Heartbeat CPU 0 instructions: 103000000 cycles: 200464643 heartbeat IPC: 0.576974 cumulative IPC: 0.478465 (Simulation time: 1 hr 17 min 9 sec) 
Heartbeat CPU 0 instructions: 104000000 cycles: 202203330 heartbeat IPC: 0.575147 cumulative IPC: 0.479322 (Simulation time: 1 hr 17 min 29 sec) 
Heartbeat CPU 0 instructions: 105000001 cycles: 203938707 heartbeat IPC: 0.576244 cumulative IPC: 0.480172 (Simulation time: 1 hr 17 min 51 sec) 
Heartbeat CPU 0 instructions: 106000000 cycles: 205606021 heartbeat IPC: 0.599766 cumulative IPC: 0.481171 (Simulation time: 1 hr 18 min 10 sec) 
Heartbeat CPU 0 instructions: 107000001 cycles: 207301142 heartbeat IPC: 0.589929 cumulative IPC: 0.482088 (Simulation time: 1 hr 18 min 28 sec) 
Heartbeat CPU 0 instructions: 108000000 cycles: 209040234 heartbeat IPC: 0.575012 cumulative IPC: 0.482884 (Simulation time: 1 hr 18 min 47 sec) 
Heartbeat CPU 0 instructions: 109000002 cycles: 210779638 heartbeat IPC: 0.574911 cumulative IPC: 0.483666 (Simulation time: 1 hr 19 min 4 sec) 
Heartbeat CPU 0 instructions: 110000001 cycles: 212505662 heartbeat IPC: 0.579366 cumulative IPC: 0.484466 (Simulation time: 1 hr 19 min 20 sec) 
Finished CPU 0 instructions: 100000003 cycles: 206412761 cummulative IPC: 0.484466 (Simulation time: 1 hr 19 min 20 sec) 

ChampSim completed all CPUs

Region of Interest Statistics

CPU 0 cummulative IPC: 0.484466 instructions: 100000003 cycles: 206412761
LLC TOTAL     ACCESS:    1107583  HIT:     332549  MISS:     775034
LLC LOAD      ACCESS:      23114  HIT:       3608  MISS:      19506
LLC RFO       ACCESS:     245174  HIT:      66975  MISS:     178199
LLC PREFETCH  ACCESS:     593786  HIT:     158800  MISS:     434986
LLC WRITEBACK ACCESS:     245509  HIT:     103166  MISS:     142343
Insertion Distribution: 
	LOAD 9 0 3856 17160 
	RFO 21005 0 21928 165925 
	PREF 0 35527 68149 396857 
	WRITEBACK 0 0 0 150326 
Total Prefetch Downgrades: 37105
