
*** ChampSim Multicore Out-of-Order Simulator ***

Warmup Instructions: 10000000
Simulation Instructions: 100000000
Configuration: 2
Number of CPUs: 1
LLC sets: 2048
LLC ways: 16
Off-chip DRAM Channels: 1 Width: 64-bit Data Rate: 1600 MT/s

CPU 0 runs /datasets/cs240c-wi22-a00-public/data/Assignment2-gz/libquantum_1735B.trace.gz
CPU 0 L1D next line prefetcher
CPU 0 L2C IP-based stride prefetcher
Initialize SRRIP state
Heartbeat CPU 0 instructions: 1000001 cycles: 333341 heartbeat IPC: 2.99993 cumulative IPC: 2.99993 (Simulation time: 0 hr 0 min 23 sec) 
Heartbeat CPU 0 instructions: 2000000 cycles: 666674 heartbeat IPC: 3 cumulative IPC: 2.99997 (Simulation time: 0 hr 0 min 46 sec) 
Heartbeat CPU 0 instructions: 3000000 cycles: 989045 heartbeat IPC: 3.10202 cumulative IPC: 3.03323 (Simulation time: 0 hr 1 min 10 sec) 
Heartbeat CPU 0 instructions: 4000000 cycles: 1290770 heartbeat IPC: 3.31428 cumulative IPC: 3.09893 (Simulation time: 0 hr 1 min 32 sec) 
Heartbeat CPU 0 instructions: 5000001 cycles: 1592495 heartbeat IPC: 3.31428 cumulative IPC: 3.13973 (Simulation time: 0 hr 1 min 55 sec) 
Heartbeat CPU 0 instructions: 6000001 cycles: 1894219 heartbeat IPC: 3.31429 cumulative IPC: 3.16753 (Simulation time: 0 hr 2 min 18 sec) 
Heartbeat CPU 0 instructions: 7000002 cycles: 2195942 heartbeat IPC: 3.3143 cumulative IPC: 3.1877 (Simulation time: 0 hr 2 min 43 sec) 
Heartbeat CPU 0 instructions: 8000000 cycles: 2501897 heartbeat IPC: 3.26845 cumulative IPC: 3.19757 (Simulation time: 0 hr 3 min 6 sec) 
Heartbeat CPU 0 instructions: 9000000 cycles: 2835230 heartbeat IPC: 3 cumulative IPC: 3.17435 (Simulation time: 0 hr 3 min 29 sec) 
Heartbeat CPU 0 instructions: 10000002 cycles: 3168564 heartbeat IPC: 3 cumulative IPC: 3.156 (Simulation time: 0 hr 3 min 52 sec) 

Warmup complete CPU 0 instructions: 10000002 cycles: 3168564 (Simulation time: 0 hr 3 min 52 sec) 

Heartbeat CPU 0 instructions: 11000001 cycles: 4593870 heartbeat IPC: 0.701603 cumulative IPC: 0.701603 (Simulation time: 0 hr 4 min 33 sec) 
Heartbeat CPU 0 instructions: 12000000 cycles: 6018722 heartbeat IPC: 0.701827 cumulative IPC: 0.701715 (Simulation time: 0 hr 5 min 11 sec) 
Heartbeat CPU 0 instructions: 13000001 cycles: 7853734 heartbeat IPC: 0.544956 cumulative IPC: 0.640318 (Simulation time: 0 hr 5 min 47 sec) 
Heartbeat CPU 0 instructions: 14000000 cycles: 10443736 heartbeat IPC: 0.3861 cumulative IPC: 0.549815 (Simulation time: 0 hr 6 min 21 sec) 
Heartbeat CPU 0 instructions: 15000000 cycles: 13028019 heartbeat IPC: 0.386955 cumulative IPC: 0.507127 (Simulation time: 0 hr 6 min 57 sec) 
Heartbeat CPU 0 instructions: 16000000 cycles: 15603175 heartbeat IPC: 0.388326 cumulative IPC: 0.482524 (Simulation time: 0 hr 7 min 36 sec) 
Heartbeat CPU 0 instructions: 17000002 cycles: 18193242 heartbeat IPC: 0.386091 cumulative IPC: 0.4659 (Simulation time: 0 hr 8 min 17 sec) 
Heartbeat CPU 0 instructions: 18000001 cycles: 20449428 heartbeat IPC: 0.443225 cumulative IPC: 0.46294 (Simulation time: 0 hr 8 min 59 sec) 
Heartbeat CPU 0 instructions: 19000000 cycles: 21951485 heartbeat IPC: 0.665753 cumulative IPC: 0.479159 (Simulation time: 0 hr 9 min 56 sec) 
Heartbeat CPU 0 instructions: 20000000 cycles: 23246241 heartbeat IPC: 0.772346 cumulative IPC: 0.498066 (Simulation time: 0 hr 10 min 49 sec) 
Heartbeat CPU 0 instructions: 21000001 cycles: 24482113 heartbeat IPC: 0.809146 cumulative IPC: 0.516104 (Simulation time: 0 hr 11 min 44 sec) 
Heartbeat CPU 0 instructions: 22000000 cycles: 25981619 heartbeat IPC: 0.666886 cumulative IPC: 0.526015 (Simulation time: 0 hr 12 min 40 sec) 
Heartbeat CPU 0 instructions: 23000000 cycles: 28227348 heartbeat IPC: 0.44529 cumulative IPC: 0.51878 (Simulation time: 0 hr 13 min 27 sec) 
Heartbeat CPU 0 instructions: 24000000 cycles: 31000622 heartbeat IPC: 0.360585 cumulative IPC: 0.503017 (Simulation time: 0 hr 14 min 14 sec) 
Heartbeat CPU 0 instructions: 25000000 cycles: 33775509 heartbeat IPC: 0.360375 cumulative IPC: 0.490085 (Simulation time: 0 hr 14 min 58 sec) 
Heartbeat CPU 0 instructions: 26000000 cycles: 36543907 heartbeat IPC: 0.36122 cumulative IPC: 0.479396 (Simulation time: 0 hr 15 min 47 sec) 
Heartbeat CPU 0 instructions: 27000001 cycles: 39333701 heartbeat IPC: 0.35845 cumulative IPC: 0.470066 (Simulation time: 0 hr 16 min 32 sec) 
Heartbeat CPU 0 instructions: 28000000 cycles: 41373638 heartbeat IPC: 0.490211 cumulative IPC: 0.471142 (Simulation time: 0 hr 17 min 26 sec) 
Heartbeat CPU 0 instructions: 29000000 cycles: 42795580 heartbeat IPC: 0.703264 cumulative IPC: 0.479471 (Simulation time: 0 hr 18 min 24 sec) 
Heartbeat CPU 0 instructions: 30000001 cycles: 44217401 heartbeat IPC: 0.703324 cumulative IPC: 0.487224 (Simulation time: 0 hr 19 min 23 sec) 
Heartbeat CPU 0 instructions: 31000000 cycles: 45639296 heartbeat IPC: 0.703286 cumulative IPC: 0.494458 (Simulation time: 0 hr 20 min 20 sec) 
Heartbeat CPU 0 instructions: 32000000 cycles: 47061112 heartbeat IPC: 0.703326 cumulative IPC: 0.501224 (Simulation time: 0 hr 21 min 17 sec) 
Heartbeat CPU 0 instructions: 33000002 cycles: 49178475 heartbeat IPC: 0.472287 cumulative IPC: 0.499892 (Simulation time: 0 hr 22 min 8 sec) 
Heartbeat CPU 0 instructions: 34000000 cycles: 51491901 heartbeat IPC: 0.432258 cumulative IPC: 0.496654 (Simulation time: 0 hr 22 min 57 sec) 
Heartbeat CPU 0 instructions: 35000000 cycles: 53783727 heartbeat IPC: 0.436333 cumulative IPC: 0.493923 (Simulation time: 0 hr 23 min 44 sec) 
Heartbeat CPU 0 instructions: 36000000 cycles: 56086202 heartbeat IPC: 0.434315 cumulative IPC: 0.49133 (Simulation time: 0 hr 24 min 33 sec) 
Heartbeat CPU 0 instructions: 37000002 cycles: 58398665 heartbeat IPC: 0.43244 cumulative IPC: 0.488864 (Simulation time: 0 hr 25 min 23 sec) 
Heartbeat CPU 0 instructions: 38000003 cycles: 60186874 heartbeat IPC: 0.559219 cumulative IPC: 0.49107 (Simulation time: 0 hr 26 min 16 sec) 
Heartbeat CPU 0 instructions: 39000000 cycles: 61598280 heartbeat IPC: 0.708511 cumulative IPC: 0.496323 (Simulation time: 0 hr 27 min 13 sec) 
Heartbeat CPU 0 instructions: 40000000 cycles: 62952274 heartbeat IPC: 0.738556 cumulative IPC: 0.501809 (Simulation time: 0 hr 28 min 7 sec) 
Heartbeat CPU 0 instructions: 41000000 cycles: 64306716 heartbeat IPC: 0.738311 cumulative IPC: 0.507048 (Simulation time: 0 hr 29 min 4 sec) 
Heartbeat CPU 0 instructions: 42000001 cycles: 65718121 heartbeat IPC: 0.708515 cumulative IPC: 0.511594 (Simulation time: 0 hr 29 min 58 sec) 
Heartbeat CPU 0 instructions: 43000000 cycles: 67872058 heartbeat IPC: 0.464266 cumulative IPC: 0.510019 (Simulation time: 0 hr 30 min 44 sec) 
Heartbeat CPU 0 instructions: 44000000 cycles: 70167685 heartbeat IPC: 0.435611 cumulative IPC: 0.507469 (Simulation time: 0 hr 31 min 35 sec) 
Heartbeat CPU 0 instructions: 45000001 cycles: 72457324 heartbeat IPC: 0.436751 cumulative IPC: 0.505132 (Simulation time: 0 hr 32 min 25 sec) 
Heartbeat CPU 0 instructions: 46000002 cycles: 74754793 heartbeat IPC: 0.435262 cumulative IPC: 0.50289 (Simulation time: 0 hr 33 min 13 sec) 
Heartbeat CPU 0 instructions: 47000000 cycles: 77069128 heartbeat IPC: 0.432089 cumulative IPC: 0.500673 (Simulation time: 0 hr 33 min 59 sec) 
Heartbeat CPU 0 instructions: 48000000 cycles: 78869904 heartbeat IPC: 0.555316 cumulative IPC: 0.501973 (Simulation time: 0 hr 34 min 51 sec) 
Heartbeat CPU 0 instructions: 49000002 cycles: 80389496 heartbeat IPC: 0.658073 cumulative IPC: 0.505044 (Simulation time: 0 hr 35 min 44 sec) 
Heartbeat CPU 0 instructions: 50000001 cycles: 81908964 heartbeat IPC: 0.658124 cumulative IPC: 0.507998 (Simulation time: 0 hr 36 min 42 sec) 
Heartbeat CPU 0 instructions: 51000000 cycles: 83428535 heartbeat IPC: 0.65808 cumulative IPC: 0.51084 (Simulation time: 0 hr 37 min 39 sec) 
Heartbeat CPU 0 instructions: 52000000 cycles: 84948209 heartbeat IPC: 0.658036 cumulative IPC: 0.513575 (Simulation time: 0 hr 38 min 34 sec) 
Heartbeat CPU 0 instructions: 53000002 cycles: 86467913 heartbeat IPC: 0.658024 cumulative IPC: 0.51621 (Simulation time: 0 hr 39 min 27 sec) 
Heartbeat CPU 0 instructions: 54000001 cycles: 87987053 heartbeat IPC: 0.658267 cumulative IPC: 0.518755 (Simulation time: 0 hr 40 min 23 sec) 
Heartbeat CPU 0 instructions: 55000000 cycles: 89506705 heartbeat IPC: 0.658045 cumulative IPC: 0.521206 (Simulation time: 0 hr 41 min 15 sec) 
Heartbeat CPU 0 instructions: 56000000 cycles: 91026174 heartbeat IPC: 0.658125 cumulative IPC: 0.523574 (Simulation time: 0 hr 42 min 9 sec) 
Heartbeat CPU 0 instructions: 57000000 cycles: 92545767 heartbeat IPC: 0.658071 cumulative IPC: 0.525861 (Simulation time: 0 hr 42 min 53 sec) 
Heartbeat CPU 0 instructions: 58000002 cycles: 94065238 heartbeat IPC: 0.658125 cumulative IPC: 0.528072 (Simulation time: 0 hr 43 min 34 sec) 
Heartbeat CPU 0 instructions: 59000001 cycles: 95559958 heartbeat IPC: 0.669021 cumulative IPC: 0.530352 (Simulation time: 0 hr 44 min 17 sec) 
Heartbeat CPU 0 instructions: 60000000 cycles: 96871262 heartbeat IPC: 0.762599 cumulative IPC: 0.533603 (Simulation time: 0 hr 44 min 59 sec) 
Heartbeat CPU 0 instructions: 61000003 cycles: 98358493 heartbeat IPC: 0.672393 cumulative IPC: 0.535771 (Simulation time: 0 hr 45 min 43 sec) 
Heartbeat CPU 0 instructions: 62000002 cycles: 99876005 heartbeat IPC: 0.658973 cumulative IPC: 0.537704 (Simulation time: 0 hr 46 min 23 sec) 
Heartbeat CPU 0 instructions: 63000001 cycles: 101395549 heartbeat IPC: 0.658091 cumulative IPC: 0.539567 (Simulation time: 0 hr 47 min 6 sec) 
Heartbeat CPU 0 instructions: 64000000 cycles: 102915013 heartbeat IPC: 0.658126 cumulative IPC: 0.541373 (Simulation time: 0 hr 47 min 47 sec) 
Heartbeat CPU 0 instructions: 65000001 cycles: 104434501 heartbeat IPC: 0.658117 cumulative IPC: 0.543124 (Simulation time: 0 hr 48 min 27 sec) 
Heartbeat CPU 0 instructions: 66000000 cycles: 105954064 heartbeat IPC: 0.658083 cumulative IPC: 0.544824 (Simulation time: 0 hr 49 min 8 sec) 
Heartbeat CPU 0 instructions: 67000001 cycles: 107451189 heartbeat IPC: 0.667948 cumulative IPC: 0.546592 (Simulation time: 0 hr 49 min 50 sec) 
Heartbeat CPU 0 instructions: 68000000 cycles: 108943312 heartbeat IPC: 0.670185 cumulative IPC: 0.548335 (Simulation time: 0 hr 50 min 27 sec) 
Heartbeat CPU 0 instructions: 69000002 cycles: 110435459 heartbeat IPC: 0.670177 cumulative IPC: 0.55003 (Simulation time: 0 hr 51 min 6 sec) 
Heartbeat CPU 0 instructions: 70000001 cycles: 111927680 heartbeat IPC: 0.670141 cumulative IPC: 0.551678 (Simulation time: 0 hr 51 min 49 sec) 
Heartbeat CPU 0 instructions: 71000003 cycles: 113478889 heartbeat IPC: 0.64466 cumulative IPC: 0.552985 (Simulation time: 0 hr 52 min 28 sec) 
Heartbeat CPU 0 instructions: 72000000 cycles: 115757592 heartbeat IPC: 0.438845 cumulative IPC: 0.550675 (Simulation time: 0 hr 53 min 4 sec) 
Heartbeat CPU 0 instructions: 73000000 cycles: 118057666 heartbeat IPC: 0.434769 cumulative IPC: 0.548355 (Simulation time: 0 hr 53 min 36 sec) 
Heartbeat CPU 0 instructions: 74000000 cycles: 120344203 heartbeat IPC: 0.437343 cumulative IPC: 0.546189 (Simulation time: 0 hr 54 min 9 sec) 
Heartbeat CPU 0 instructions: 75000000 cycles: 122639483 heartbeat IPC: 0.435677 cumulative IPC: 0.544065 (Simulation time: 0 hr 54 min 40 sec) 
Heartbeat CPU 0 instructions: 76000000 cycles: 124949570 heartbeat IPC: 0.432884 cumulative IPC: 0.541956 (Simulation time: 0 hr 55 min 14 sec) 
Heartbeat CPU 0 instructions: 77000001 cycles: 126582283 heartbeat IPC: 0.612478 cumulative IPC: 0.542889 (Simulation time: 0 hr 55 min 53 sec) 
Heartbeat CPU 0 instructions: 78000000 cycles: 128086981 heartbeat IPC: 0.664585 cumulative IPC: 0.544355 (Simulation time: 0 hr 56 min 24 sec) 
Heartbeat CPU 0 instructions: 79000001 cycles: 129411196 heartbeat IPC: 0.755165 cumulative IPC: 0.546567 (Simulation time: 0 hr 56 min 58 sec) 
Heartbeat CPU 0 instructions: 80000000 cycles: 130785579 heartbeat IPC: 0.727598 cumulative IPC: 0.548516 (Simulation time: 0 hr 57 min 32 sec) 
Heartbeat CPU 0 instructions: 81000002 cycles: 132384004 heartbeat IPC: 0.625617 cumulative IPC: 0.54947 (Simulation time: 0 hr 58 min 5 sec) 
Heartbeat CPU 0 instructions: 82000003 cycles: 134641315 heartbeat IPC: 0.443005 cumulative IPC: 0.547642 (Simulation time: 0 hr 58 min 39 sec) 
Heartbeat CPU 0 instructions: 83000000 cycles: 136930453 heartbeat IPC: 0.436844 cumulative IPC: 0.545746 (Simulation time: 0 hr 59 min 12 sec) 
Heartbeat CPU 0 instructions: 84000000 cycles: 139213888 heartbeat IPC: 0.437937 cumulative IPC: 0.543936 (Simulation time: 0 hr 59 min 50 sec) 
Heartbeat CPU 0 instructions: 85000002 cycles: 141515759 heartbeat IPC: 0.43443 cumulative IPC: 0.542114 (Simulation time: 1 hr 0 min 26 sec) 
Heartbeat CPU 0 instructions: 86000002 cycles: 143816931 heartbeat IPC: 0.434561 cumulative IPC: 0.540355 (Simulation time: 1 hr 1 min 1 sec) 
Heartbeat CPU 0 instructions: 87000002 cycles: 145468661 heartbeat IPC: 0.605426 cumulative IPC: 0.54111 (Simulation time: 1 hr 1 min 43 sec) 
Heartbeat CPU 0 instructions: 88000000 cycles: 147041755 heartbeat IPC: 0.635689 cumulative IPC: 0.542144 (Simulation time: 1 hr 2 min 25 sec) 
Heartbeat CPU 0 instructions: 89000000 cycles: 148614923 heartbeat IPC: 0.63566 cumulative IPC: 0.543156 (Simulation time: 1 hr 3 min 11 sec) 
Heartbeat CPU 0 instructions: 90000000 cycles: 150551585 heartbeat IPC: 0.516352 cumulative IPC: 0.542803 (Simulation time: 1 hr 3 min 49 sec) 
Heartbeat CPU 0 instructions: 91000001 cycles: 153490280 heartbeat IPC: 0.340287 cumulative IPC: 0.538844 (Simulation time: 1 hr 4 min 24 sec) 
Heartbeat CPU 0 instructions: 92000000 cycles: 156405543 heartbeat IPC: 0.343022 cumulative IPC: 0.535119 (Simulation time: 1 hr 4 min 59 sec) 
Heartbeat CPU 0 instructions: 93000001 cycles: 159341020 heartbeat IPC: 0.34066 cumulative IPC: 0.531464 (Simulation time: 1 hr 5 min 32 sec) 
Heartbeat CPU 0 instructions: 94000001 cycles: 162057014 heartbeat IPC: 0.368189 cumulative IPC: 0.528673 (Simulation time: 1 hr 6 min 10 sec) 
Heartbeat CPU 0 instructions: 95000000 cycles: 163633700 heartbeat IPC: 0.634241 cumulative IPC: 0.52971 (Simulation time: 1 hr 6 min 46 sec) 
Heartbeat CPU 0 instructions: 96000000 cycles: 165146896 heartbeat IPC: 0.660853 cumulative IPC: 0.530935 (Simulation time: 1 hr 7 min 22 sec) 
Heartbeat CPU 0 instructions: 97000002 cycles: 166572080 heartbeat IPC: 0.701665 cumulative IPC: 0.532424 (Simulation time: 1 hr 7 min 54 sec) 
Heartbeat CPU 0 instructions: 98000001 cycles: 168758747 heartbeat IPC: 0.457317 cumulative IPC: 0.531432 (Simulation time: 1 hr 8 min 24 sec) 
Heartbeat CPU 0 instructions: 99000003 cycles: 171656945 heartbeat IPC: 0.345043 cumulative IPC: 0.528226 (Simulation time: 1 hr 8 min 52 sec) 
Heartbeat CPU 0 instructions: 100000000 cycles: 174542456 heartbeat IPC: 0.346558 cumulative IPC: 0.525168 (Simulation time: 1 hr 9 min 22 sec) 
Heartbeat CPU 0 instructions: 101000000 cycles: 177445112 heartbeat IPC: 0.344512 cumulative IPC: 0.522159 (Simulation time: 1 hr 9 min 54 sec) 
Heartbeat CPU 0 instructions: 102000000 cycles: 179787522 heartbeat IPC: 0.426911 cumulative IPC: 0.520895 (Simulation time: 1 hr 10 min 23 sec) 
Heartbeat CPU 0 instructions: 103000002 cycles: 181259870 heartbeat IPC: 0.679189 cumulative IPC: 0.522204 (Simulation time: 1 hr 10 min 51 sec) 
Heartbeat CPU 0 instructions: 104000000 cycles: 182730806 heartbeat IPC: 0.679838 cumulative IPC: 0.523495 (Simulation time: 1 hr 11 min 19 sec) 
Heartbeat CPU 0 instructions: 105000000 cycles: 184201687 heartbeat IPC: 0.679865 cumulative IPC: 0.524766 (Simulation time: 1 hr 11 min 46 sec) 
Heartbeat CPU 0 instructions: 106000003 cycles: 185672646 heartbeat IPC: 0.679831 cumulative IPC: 0.526016 (Simulation time: 1 hr 12 min 13 sec) 
Heartbeat CPU 0 instructions: 107000000 cycles: 187862921 heartbeat IPC: 0.456562 cumulative IPC: 0.525192 (Simulation time: 1 hr 12 min 37 sec) 
Heartbeat CPU 0 instructions: 108000000 cycles: 190440465 heartbeat IPC: 0.387966 cumulative IPC: 0.523303 (Simulation time: 1 hr 13 min 1 sec) 
Heartbeat CPU 0 instructions: 109000002 cycles: 193023707 heartbeat IPC: 0.387111 cumulative IPC: 0.52145 (Simulation time: 1 hr 13 min 24 sec) 
Heartbeat CPU 0 instructions: 110000002 cycles: 195606183 heartbeat IPC: 0.387225 cumulative IPC: 0.519649 (Simulation time: 1 hr 13 min 45 sec) 
Finished CPU 0 instructions: 100000000 cycles: 192437619 cummulative IPC: 0.519649 (Simulation time: 1 hr 13 min 45 sec) 

ChampSim completed all CPUs

Region of Interest Statistics

CPU 0 cummulative IPC: 0.519649 instructions: 100000000 cycles: 192437619
LLC TOTAL     ACCESS:    3801551  HIT:     130777  MISS:    3670774
LLC LOAD      ACCESS:     655851  HIT:      36900  MISS:     618951
LLC RFO       ACCESS:         20  HIT:         20  MISS:          0
LLC PREFETCH  ACCESS:    2133575  HIT:      77686  MISS:    2055889
LLC WRITEBACK ACCESS:    1012105  HIT:      16171  MISS:     995934
Insertion Distribution: 
	LOAD 10434 0 12594 600068 
	RFO 0 0 4 0 
	PREF 0 11873 53820 2250121 
	WRITEBACK 0 0 0 1118022 
Total Prefetch Downgrades: 26807
