
*** ChampSim Multicore Out-of-Order Simulator ***

Warmup Instructions: 10000000
Simulation Instructions: 100000000
Configuration: 2
Number of CPUs: 1
LLC sets: 2048
LLC ways: 16
Off-chip DRAM Channels: 1 Width: 64-bit Data Rate: 1600 MT/s

CPU 0 runs /datasets/cs240c-wi22-a00-public/data/Assignment2-gz/bzip2_281B.trace.gz
CPU 0 L1D next line prefetcher
CPU 0 L2C IP-based stride prefetcher
Initialize SRRIP state
Heartbeat CPU 0 instructions: 1000000 cycles: 445877 heartbeat IPC: 2.24277 cumulative IPC: 2.24277 (Simulation time: 0 hr 0 min 41 sec) 
Heartbeat CPU 0 instructions: 2000003 cycles: 900180 heartbeat IPC: 2.20118 cumulative IPC: 2.22178 (Simulation time: 0 hr 1 min 20 sec) 
Heartbeat CPU 0 instructions: 3000002 cycles: 1315039 heartbeat IPC: 2.41046 cumulative IPC: 2.2813 (Simulation time: 0 hr 1 min 59 sec) 
Heartbeat CPU 0 instructions: 4000000 cycles: 1753515 heartbeat IPC: 2.28062 cumulative IPC: 2.28113 (Simulation time: 0 hr 2 min 38 sec) 
Heartbeat CPU 0 instructions: 5000002 cycles: 2175509 heartbeat IPC: 2.36971 cumulative IPC: 2.29831 (Simulation time: 0 hr 3 min 16 sec) 
Heartbeat CPU 0 instructions: 6000000 cycles: 2666157 heartbeat IPC: 2.03812 cumulative IPC: 2.25043 (Simulation time: 0 hr 3 min 59 sec) 
Heartbeat CPU 0 instructions: 7000001 cycles: 3193436 heartbeat IPC: 1.89653 cumulative IPC: 2.192 (Simulation time: 0 hr 4 min 42 sec) 
Heartbeat CPU 0 instructions: 8000000 cycles: 3726051 heartbeat IPC: 1.87753 cumulative IPC: 2.14705 (Simulation time: 0 hr 5 min 22 sec) 
Heartbeat CPU 0 instructions: 9000000 cycles: 4232463 heartbeat IPC: 1.97468 cumulative IPC: 2.12642 (Simulation time: 0 hr 6 min 1 sec) 
Heartbeat CPU 0 instructions: 10000002 cycles: 4685404 heartbeat IPC: 2.2078 cumulative IPC: 2.13429 (Simulation time: 0 hr 6 min 38 sec) 

Warmup complete CPU 0 instructions: 10000002 cycles: 4685404 (Simulation time: 0 hr 6 min 38 sec) 

Heartbeat CPU 0 instructions: 11000000 cycles: 6190631 heartbeat IPC: 0.66435 cumulative IPC: 0.66435 (Simulation time: 0 hr 7 min 13 sec) 
Heartbeat CPU 0 instructions: 12000000 cycles: 7429287 heartbeat IPC: 0.807327 cumulative IPC: 0.728893 (Simulation time: 0 hr 7 min 50 sec) 
Heartbeat CPU 0 instructions: 13000001 cycles: 8723419 heartbeat IPC: 0.77272 cumulative IPC: 0.742939 (Simulation time: 0 hr 8 min 30 sec) 
Heartbeat CPU 0 instructions: 14000000 cycles: 10158539 heartbeat IPC: 0.696805 cumulative IPC: 0.730842 (Simulation time: 0 hr 9 min 2 sec) 
Heartbeat CPU 0 instructions: 15000000 cycles: 11578123 heartbeat IPC: 0.704432 cumulative IPC: 0.725403 (Simulation time: 0 hr 9 min 39 sec) 
Heartbeat CPU 0 instructions: 16000000 cycles: 13082858 heartbeat IPC: 0.664569 cumulative IPC: 0.714502 (Simulation time: 0 hr 10 min 18 sec) 
Heartbeat CPU 0 instructions: 17000000 cycles: 14599653 heartbeat IPC: 0.659285 cumulative IPC: 0.706054 (Simulation time: 0 hr 10 min 55 sec) 
Heartbeat CPU 0 instructions: 18000002 cycles: 16239133 heartbeat IPC: 0.609951 cumulative IPC: 0.692417 (Simulation time: 0 hr 11 min 30 sec) 
Heartbeat CPU 0 instructions: 19000003 cycles: 17695401 heartbeat IPC: 0.686687 cumulative IPC: 0.691776 (Simulation time: 0 hr 12 min 4 sec) 
Heartbeat CPU 0 instructions: 20000000 cycles: 19269307 heartbeat IPC: 0.63536 cumulative IPC: 0.685687 (Simulation time: 0 hr 12 min 40 sec) 
Heartbeat CPU 0 instructions: 21000001 cycles: 20863313 heartbeat IPC: 0.627351 cumulative IPC: 0.679939 (Simulation time: 0 hr 13 min 17 sec) 
Heartbeat CPU 0 instructions: 22000000 cycles: 22713818 heartbeat IPC: 0.540392 cumulative IPC: 0.665616 (Simulation time: 0 hr 14 min 0 sec) 
Heartbeat CPU 0 instructions: 23000001 cycles: 24332666 heartbeat IPC: 0.617724 cumulative IPC: 0.66167 (Simulation time: 0 hr 14 min 33 sec) 
Heartbeat CPU 0 instructions: 24000000 cycles: 25857347 heartbeat IPC: 0.655874 cumulative IPC: 0.661252 (Simulation time: 0 hr 15 min 11 sec) 
Heartbeat CPU 0 instructions: 25000002 cycles: 27354761 heartbeat IPC: 0.667819 cumulative IPC: 0.661686 (Simulation time: 0 hr 15 min 52 sec) 
Heartbeat CPU 0 instructions: 26000003 cycles: 28492588 heartbeat IPC: 0.878869 cumulative IPC: 0.672066 (Simulation time: 0 hr 16 min 35 sec) 
Heartbeat CPU 0 instructions: 27000002 cycles: 29798694 heartbeat IPC: 0.765634 cumulative IPC: 0.676932 (Simulation time: 0 hr 17 min 17 sec) 
Heartbeat CPU 0 instructions: 28000000 cycles: 30791810 heartbeat IPC: 1.00693 cumulative IPC: 0.689486 (Simulation time: 0 hr 17 min 50 sec) 
Heartbeat CPU 0 instructions: 29000001 cycles: 31697658 heartbeat IPC: 1.10394 cumulative IPC: 0.703384 (Simulation time: 0 hr 18 min 22 sec) 
Heartbeat CPU 0 instructions: 30000000 cycles: 32614868 heartbeat IPC: 1.09026 cumulative IPC: 0.71609 (Simulation time: 0 hr 18 min 54 sec) 
Heartbeat CPU 0 instructions: 31000003 cycles: 33610074 heartbeat IPC: 1.00482 cumulative IPC: 0.726024 (Simulation time: 0 hr 19 min 22 sec) 
Heartbeat CPU 0 instructions: 32000000 cycles: 34533925 heartbeat IPC: 1.08242 cumulative IPC: 0.737055 (Simulation time: 0 hr 19 min 56 sec) 
Heartbeat CPU 0 instructions: 33000002 cycles: 35523514 heartbeat IPC: 1.01052 cumulative IPC: 0.74583 (Simulation time: 0 hr 20 min 40 sec) 
Heartbeat CPU 0 instructions: 34000000 cycles: 36472792 heartbeat IPC: 1.05343 cumulative IPC: 0.755016 (Simulation time: 0 hr 21 min 16 sec) 
Heartbeat CPU 0 instructions: 35000000 cycles: 37332673 heartbeat IPC: 1.16295 cumulative IPC: 0.765761 (Simulation time: 0 hr 21 min 47 sec) 
Heartbeat CPU 0 instructions: 36000000 cycles: 38175177 heartbeat IPC: 1.18694 cumulative IPC: 0.776356 (Simulation time: 0 hr 22 min 19 sec) 
Heartbeat CPU 0 instructions: 37000000 cycles: 39028159 heartbeat IPC: 1.17236 cumulative IPC: 0.786192 (Simulation time: 0 hr 22 min 49 sec) 
Heartbeat CPU 0 instructions: 38000002 cycles: 39823021 heartbeat IPC: 1.25808 cumulative IPC: 0.796867 (Simulation time: 0 hr 23 min 19 sec) 
Heartbeat CPU 0 instructions: 39000001 cycles: 40730868 heartbeat IPC: 1.10151 cumulative IPC: 0.80454 (Simulation time: 0 hr 23 min 51 sec) 
Heartbeat CPU 0 instructions: 40000000 cycles: 41667538 heartbeat IPC: 1.06761 cumulative IPC: 0.811202 (Simulation time: 0 hr 24 min 26 sec) 
Heartbeat CPU 0 instructions: 41000002 cycles: 42628726 heartbeat IPC: 1.04038 cumulative IPC: 0.817008 (Simulation time: 0 hr 25 min 0 sec) 
Heartbeat CPU 0 instructions: 42000001 cycles: 43584410 heartbeat IPC: 1.04637 cumulative IPC: 0.822643 (Simulation time: 0 hr 25 min 34 sec) 
Heartbeat CPU 0 instructions: 43000001 cycles: 44533914 heartbeat IPC: 1.05318 cumulative IPC: 0.828136 (Simulation time: 0 hr 26 min 5 sec) 
Heartbeat CPU 0 instructions: 44000000 cycles: 45510180 heartbeat IPC: 1.02431 cumulative IPC: 0.832828 (Simulation time: 0 hr 26 min 39 sec) 
Heartbeat CPU 0 instructions: 45000001 cycles: 46436327 heartbeat IPC: 1.07974 cumulative IPC: 0.838305 (Simulation time: 0 hr 27 min 10 sec) 
Heartbeat CPU 0 instructions: 46000000 cycles: 47339296 heartbeat IPC: 1.10746 cumulative IPC: 0.844003 (Simulation time: 0 hr 27 min 47 sec) 
Heartbeat CPU 0 instructions: 47000000 cycles: 48218627 heartbeat IPC: 1.13723 cumulative IPC: 0.849926 (Simulation time: 0 hr 28 min 23 sec) 
Heartbeat CPU 0 instructions: 48000000 cycles: 49124796 heartbeat IPC: 1.10355 cumulative IPC: 0.855097 (Simulation time: 0 hr 28 min 59 sec) 
Heartbeat CPU 0 instructions: 49000001 cycles: 50065138 heartbeat IPC: 1.06344 cumulative IPC: 0.859414 (Simulation time: 0 hr 29 min 37 sec) 
Heartbeat CPU 0 instructions: 50000003 cycles: 51046613 heartbeat IPC: 1.01888 cumulative IPC: 0.86279 (Simulation time: 0 hr 30 min 14 sec) 
Heartbeat CPU 0 instructions: 51000002 cycles: 52003857 heartbeat IPC: 1.04466 cumulative IPC: 0.86647 (Simulation time: 0 hr 30 min 49 sec) 
Heartbeat CPU 0 instructions: 52000000 cycles: 52968875 heartbeat IPC: 1.03625 cumulative IPC: 0.869863 (Simulation time: 0 hr 31 min 27 sec) 
Heartbeat CPU 0 instructions: 53000001 cycles: 53946918 heartbeat IPC: 1.02245 cumulative IPC: 0.872892 (Simulation time: 0 hr 32 min 4 sec) 
Heartbeat CPU 0 instructions: 54000003 cycles: 54927702 heartbeat IPC: 1.01959 cumulative IPC: 0.875756 (Simulation time: 0 hr 32 min 40 sec) 
Heartbeat CPU 0 instructions: 55000000 cycles: 55892014 heartbeat IPC: 1.03701 cumulative IPC: 0.878793 (Simulation time: 0 hr 33 min 18 sec) 
Heartbeat CPU 0 instructions: 56000000 cycles: 56868119 heartbeat IPC: 1.02448 cumulative IPC: 0.881518 (Simulation time: 0 hr 33 min 54 sec) 
Heartbeat CPU 0 instructions: 57000002 cycles: 57836456 heartbeat IPC: 1.0327 cumulative IPC: 0.884272 (Simulation time: 0 hr 34 min 30 sec) 
Heartbeat CPU 0 instructions: 58000003 cycles: 58810694 heartbeat IPC: 1.02644 cumulative IPC: 0.886831 (Simulation time: 0 hr 35 min 3 sec) 
Heartbeat CPU 0 instructions: 59000003 cycles: 59841115 heartbeat IPC: 0.970477 cumulative IPC: 0.888394 (Simulation time: 0 hr 35 min 42 sec) 
Heartbeat CPU 0 instructions: 60000000 cycles: 61048609 heartbeat IPC: 0.828159 cumulative IPC: 0.887104 (Simulation time: 0 hr 36 min 26 sec) 
Heartbeat CPU 0 instructions: 61000000 cycles: 62255288 heartbeat IPC: 0.828721 cumulative IPC: 0.88588 (Simulation time: 0 hr 37 min 8 sec) 
Heartbeat CPU 0 instructions: 62000003 cycles: 63478825 heartbeat IPC: 0.817305 cumulative IPC: 0.884453 (Simulation time: 0 hr 37 min 51 sec) 
Heartbeat CPU 0 instructions: 63000001 cycles: 64710345 heartbeat IPC: 0.812003 cumulative IPC: 0.882966 (Simulation time: 0 hr 38 min 34 sec) 
Heartbeat CPU 0 instructions: 64000000 cycles: 66031852 heartbeat IPC: 0.756711 cumulative IPC: 0.880247 (Simulation time: 0 hr 39 min 15 sec) 
Heartbeat CPU 0 instructions: 65000001 cycles: 67236117 heartbeat IPC: 0.830383 cumulative IPC: 0.879287 (Simulation time: 0 hr 39 min 58 sec) 
Heartbeat CPU 0 instructions: 66000003 cycles: 68438087 heartbeat IPC: 0.831969 cumulative IPC: 0.878394 (Simulation time: 0 hr 40 min 41 sec) 
Heartbeat CPU 0 instructions: 67000000 cycles: 69649397 heartbeat IPC: 0.82555 cumulative IPC: 0.877409 (Simulation time: 0 hr 41 min 26 sec) 
Heartbeat CPU 0 instructions: 68000000 cycles: 70963257 heartbeat IPC: 0.761116 cumulative IPC: 0.875104 (Simulation time: 0 hr 42 min 8 sec) 
Heartbeat CPU 0 instructions: 69000000 cycles: 72159761 heartbeat IPC: 0.835768 cumulative IPC: 0.874406 (Simulation time: 0 hr 42 min 58 sec) 
Heartbeat CPU 0 instructions: 70000002 cycles: 73361975 heartbeat IPC: 0.8318 cumulative IPC: 0.87366 (Simulation time: 0 hr 43 min 43 sec) 
Heartbeat CPU 0 instructions: 71000003 cycles: 74568747 heartbeat IPC: 0.828658 cumulative IPC: 0.872883 (Simulation time: 0 hr 44 min 27 sec) 
Heartbeat CPU 0 instructions: 72000000 cycles: 75776748 heartbeat IPC: 0.827811 cumulative IPC: 0.872117 (Simulation time: 0 hr 45 min 10 sec) 
Heartbeat CPU 0 instructions: 73000002 cycles: 77080212 heartbeat IPC: 0.767188 cumulative IPC: 0.870228 (Simulation time: 0 hr 45 min 51 sec) 
Heartbeat CPU 0 instructions: 74000000 cycles: 78279701 heartbeat IPC: 0.833687 cumulative IPC: 0.869633 (Simulation time: 0 hr 46 min 35 sec) 
Heartbeat CPU 0 instructions: 75000001 cycles: 79481090 heartbeat IPC: 0.832371 cumulative IPC: 0.869034 (Simulation time: 0 hr 47 min 18 sec) 
Heartbeat CPU 0 instructions: 76000000 cycles: 80690387 heartbeat IPC: 0.826926 cumulative IPC: 0.868364 (Simulation time: 0 hr 48 min 1 sec) 
Heartbeat CPU 0 instructions: 77000001 cycles: 81947491 heartbeat IPC: 0.79548 cumulative IPC: 0.867178 (Simulation time: 0 hr 48 min 42 sec) 
Heartbeat CPU 0 instructions: 78000003 cycles: 83113466 heartbeat IPC: 0.857653 cumulative IPC: 0.867037 (Simulation time: 0 hr 49 min 13 sec) 
Heartbeat CPU 0 instructions: 79000000 cycles: 84032344 heartbeat IPC: 1.08828 cumulative IPC: 0.869599 (Simulation time: 0 hr 49 min 47 sec) 
Heartbeat CPU 0 instructions: 80000000 cycles: 84935790 heartbeat IPC: 1.10687 cumulative IPC: 0.87227 (Simulation time: 0 hr 50 min 22 sec) 
Heartbeat CPU 0 instructions: 81000000 cycles: 85781529 heartbeat IPC: 1.1824 cumulative IPC: 0.875504 (Simulation time: 0 hr 50 min 56 sec) 
Heartbeat CPU 0 instructions: 82000001 cycles: 86673366 heartbeat IPC: 1.12128 cumulative IPC: 0.878178 (Simulation time: 0 hr 51 min 29 sec) 
Heartbeat CPU 0 instructions: 83000000 cycles: 87597258 heartbeat IPC: 1.08238 cumulative IPC: 0.880453 (Simulation time: 0 hr 52 min 1 sec) 
Heartbeat CPU 0 instructions: 84000000 cycles: 88513944 heartbeat IPC: 1.09089 cumulative IPC: 0.882754 (Simulation time: 0 hr 52 min 32 sec) 
Heartbeat CPU 0 instructions: 85000002 cycles: 89449085 heartbeat IPC: 1.06936 cumulative IPC: 0.884813 (Simulation time: 0 hr 53 min 13 sec) 
Heartbeat CPU 0 instructions: 86000002 cycles: 90378470 heartbeat IPC: 1.07598 cumulative IPC: 0.886886 (Simulation time: 0 hr 53 min 57 sec) 
Heartbeat CPU 0 instructions: 87000002 cycles: 91307662 heartbeat IPC: 1.0762 cumulative IPC: 0.888917 (Simulation time: 0 hr 54 min 40 sec) 
Heartbeat CPU 0 instructions: 88000000 cycles: 92356878 heartbeat IPC: 0.953091 cumulative IPC: 0.889685 (Simulation time: 0 hr 55 min 22 sec) 
Heartbeat CPU 0 instructions: 89000002 cycles: 93451412 heartbeat IPC: 0.913633 cumulative IPC: 0.88998 (Simulation time: 0 hr 56 min 5 sec) 
Heartbeat CPU 0 instructions: 90000001 cycles: 94543341 heartbeat IPC: 0.91581 cumulative IPC: 0.890294 (Simulation time: 0 hr 56 min 49 sec) 
Heartbeat CPU 0 instructions: 91000001 cycles: 95640782 heartbeat IPC: 0.911211 cumulative IPC: 0.890547 (Simulation time: 0 hr 57 min 32 sec) 
Heartbeat CPU 0 instructions: 92000000 cycles: 96727049 heartbeat IPC: 0.920583 cumulative IPC: 0.890901 (Simulation time: 0 hr 58 min 14 sec) 
Heartbeat CPU 0 instructions: 93000001 cycles: 97811780 heartbeat IPC: 0.921888 cumulative IPC: 0.891262 (Simulation time: 0 hr 58 min 56 sec) 
Heartbeat CPU 0 instructions: 94000001 cycles: 98894141 heartbeat IPC: 0.923906 cumulative IPC: 0.891637 (Simulation time: 0 hr 59 min 36 sec) 
Heartbeat CPU 0 instructions: 95000000 cycles: 99979490 heartbeat IPC: 0.921362 cumulative IPC: 0.891976 (Simulation time: 1 hr 0 min 17 sec) 
Heartbeat CPU 0 instructions: 96000000 cycles: 101062816 heartbeat IPC: 0.923083 cumulative IPC: 0.892325 (Simulation time: 1 hr 0 min 58 sec) 
Heartbeat CPU 0 instructions: 97000002 cycles: 102148272 heartbeat IPC: 0.921274 cumulative IPC: 0.892648 (Simulation time: 1 hr 1 min 37 sec) 
Heartbeat CPU 0 instructions: 98000002 cycles: 103231531 heartbeat IPC: 0.92314 cumulative IPC: 0.892983 (Simulation time: 1 hr 2 min 17 sec) 
Heartbeat CPU 0 instructions: 99000000 cycles: 104313307 heartbeat IPC: 0.924404 cumulative IPC: 0.893324 (Simulation time: 1 hr 2 min 59 sec) 
Heartbeat CPU 0 instructions: 100000000 cycles: 105398682 heartbeat IPC: 0.921341 cumulative IPC: 0.893626 (Simulation time: 1 hr 3 min 37 sec) 
Heartbeat CPU 0 instructions: 101000000 cycles: 106485663 heartbeat IPC: 0.919979 cumulative IPC: 0.893907 (Simulation time: 1 hr 4 min 14 sec) 
Heartbeat CPU 0 instructions: 102000000 cycles: 107575144 heartbeat IPC: 0.917868 cumulative IPC: 0.894161 (Simulation time: 1 hr 4 min 53 sec) 
Heartbeat CPU 0 instructions: 103000002 cycles: 108665225 heartbeat IPC: 0.917365 cumulative IPC: 0.894404 (Simulation time: 1 hr 5 min 33 sec) 
Heartbeat CPU 0 instructions: 104000000 cycles: 109754491 heartbeat IPC: 0.918048 cumulative IPC: 0.894649 (Simulation time: 1 hr 6 min 13 sec) 
Heartbeat CPU 0 instructions: 105000003 cycles: 110848420 heartbeat IPC: 0.914139 cumulative IPC: 0.89485 (Simulation time: 1 hr 6 min 48 sec) 
Heartbeat CPU 0 instructions: 106000002 cycles: 111944608 heartbeat IPC: 0.912251 cumulative IPC: 0.895028 (Simulation time: 1 hr 7 min 21 sec) 
Heartbeat CPU 0 instructions: 107000001 cycles: 113028953 heartbeat IPC: 0.922215 cumulative IPC: 0.8953 (Simulation time: 1 hr 7 min 54 sec) 
Heartbeat CPU 0 instructions: 108000000 cycles: 114123625 heartbeat IPC: 0.913515 cumulative IPC: 0.895482 (Simulation time: 1 hr 8 min 25 sec) 
Heartbeat CPU 0 instructions: 109000001 cycles: 115218473 heartbeat IPC: 0.91337 cumulative IPC: 0.89566 (Simulation time: 1 hr 8 min 55 sec) 
Heartbeat CPU 0 instructions: 110000002 cycles: 116317451 heartbeat IPC: 0.909937 cumulative IPC: 0.8958 (Simulation time: 1 hr 9 min 25 sec) 
Finished CPU 0 instructions: 100000000 cycles: 111632047 cummulative IPC: 0.8958 (Simulation time: 1 hr 9 min 25 sec) 

ChampSim completed all CPUs

Region of Interest Statistics

CPU 0 cummulative IPC: 0.8958 instructions: 100000000 cycles: 111632047
LLC TOTAL     ACCESS:    2346599  HIT:    2110244  MISS:     236355
LLC LOAD      ACCESS:     882486  HIT:     861225  MISS:      21261
LLC RFO       ACCESS:     180744  HIT:     109313  MISS:      71431
LLC PREFETCH  ACCESS:    1098512  HIT:     963721  MISS:     134791
LLC WRITEBACK ACCESS:     184857  HIT:     175985  MISS:       8872
Insertion Distribution: 
	LOAD 20504 0 12219 1538 
	RFO 26873 0 51549 10267 
	PREF 0 11691 49464 93086 
	WRITEBACK 0 0 0 10551 
Total Prefetch Downgrades: 24612
