
*** ChampSim Multicore Out-of-Order Simulator ***

Warmup Instructions: 10000000
Simulation Instructions: 100000000
Configuration: 2
Number of CPUs: 1
LLC sets: 2048
LLC ways: 16
Off-chip DRAM Channels: 1 Width: 64-bit Data Rate: 1600 MT/s

CPU 0 runs /datasets/cs240c-wi22-a00-public/data/Assignment2-gz/gcc_13B.trace.gz
CPU 0 L1D next line prefetcher
CPU 0 L2C IP-based stride prefetcher
Initialize SRRIP state
Heartbeat CPU 0 instructions: 1000000 cycles: 633314 heartbeat IPC: 1.579 cumulative IPC: 1.579 (Simulation time: 0 hr 0 min 51 sec) 
Heartbeat CPU 0 instructions: 2000001 cycles: 1243583 heartbeat IPC: 1.63862 cumulative IPC: 1.60826 (Simulation time: 0 hr 1 min 34 sec) 
Heartbeat CPU 0 instructions: 3000001 cycles: 1717449 heartbeat IPC: 2.1103 cumulative IPC: 1.74678 (Simulation time: 0 hr 2 min 16 sec) 
Heartbeat CPU 0 instructions: 4000000 cycles: 2191002 heartbeat IPC: 2.11169 cumulative IPC: 1.82565 (Simulation time: 0 hr 3 min 0 sec) 
Heartbeat CPU 0 instructions: 5000002 cycles: 2665084 heartbeat IPC: 2.10934 cumulative IPC: 1.87611 (Simulation time: 0 hr 3 min 43 sec) 
Heartbeat CPU 0 instructions: 6000002 cycles: 3138933 heartbeat IPC: 2.11038 cumulative IPC: 1.91148 (Simulation time: 0 hr 4 min 25 sec) 
Heartbeat CPU 0 instructions: 7000001 cycles: 3614293 heartbeat IPC: 2.10367 cumulative IPC: 1.93676 (Simulation time: 0 hr 5 min 5 sec) 
Heartbeat CPU 0 instructions: 8000000 cycles: 4090728 heartbeat IPC: 2.09892 cumulative IPC: 1.95564 (Simulation time: 0 hr 5 min 49 sec) 
Heartbeat CPU 0 instructions: 9000001 cycles: 4831750 heartbeat IPC: 1.34949 cumulative IPC: 1.86268 (Simulation time: 0 hr 6 min 32 sec) 
Heartbeat CPU 0 instructions: 10000001 cycles: 5536045 heartbeat IPC: 1.41986 cumulative IPC: 1.80634 (Simulation time: 0 hr 7 min 14 sec) 

Warmup complete CPU 0 instructions: 10000001 cycles: 5536045 (Simulation time: 0 hr 7 min 14 sec) 

Heartbeat CPU 0 instructions: 11000000 cycles: 12446223 heartbeat IPC: 0.144714 cumulative IPC: 0.144714 (Simulation time: 0 hr 8 min 21 sec) 
Heartbeat CPU 0 instructions: 12000000 cycles: 18743723 heartbeat IPC: 0.158793 cumulative IPC: 0.151427 (Simulation time: 0 hr 9 min 27 sec) 
Heartbeat CPU 0 instructions: 13000000 cycles: 24726450 heartbeat IPC: 0.167148 cumulative IPC: 0.156328 (Simulation time: 0 hr 10 min 30 sec) 
Heartbeat CPU 0 instructions: 14000000 cycles: 30267312 heartbeat IPC: 0.180477 cumulative IPC: 0.161739 (Simulation time: 0 hr 11 min 35 sec) 
Heartbeat CPU 0 instructions: 15000000 cycles: 32919124 heartbeat IPC: 0.377101 cumulative IPC: 0.182594 (Simulation time: 0 hr 12 min 30 sec) 
Heartbeat CPU 0 instructions: 16000000 cycles: 35152009 heartbeat IPC: 0.447851 cumulative IPC: 0.202593 (Simulation time: 0 hr 13 min 19 sec) 
Heartbeat CPU 0 instructions: 17000000 cycles: 37369379 heartbeat IPC: 0.450985 cumulative IPC: 0.219895 (Simulation time: 0 hr 14 min 8 sec) 
Heartbeat CPU 0 instructions: 18000000 cycles: 39585908 heartbeat IPC: 0.451156 cumulative IPC: 0.23495 (Simulation time: 0 hr 14 min 53 sec) 
Heartbeat CPU 0 instructions: 19000002 cycles: 41834278 heartbeat IPC: 0.444768 cumulative IPC: 0.247946 (Simulation time: 0 hr 15 min 35 sec) 
Heartbeat CPU 0 instructions: 20000000 cycles: 44097330 heartbeat IPC: 0.44188 cumulative IPC: 0.259327 (Simulation time: 0 hr 16 min 17 sec) 
Heartbeat CPU 0 instructions: 21000000 cycles: 46513735 heartbeat IPC: 0.413838 cumulative IPC: 0.268439 (Simulation time: 0 hr 17 min 2 sec) 
Heartbeat CPU 0 instructions: 22000001 cycles: 50520232 heartbeat IPC: 0.249595 cumulative IPC: 0.26676 (Simulation time: 0 hr 17 min 59 sec) 
Heartbeat CPU 0 instructions: 23000002 cycles: 57756317 heartbeat IPC: 0.138196 cumulative IPC: 0.248945 (Simulation time: 0 hr 18 min 59 sec) 
Heartbeat CPU 0 instructions: 24000000 cycles: 64811522 heartbeat IPC: 0.141739 cumulative IPC: 0.236185 (Simulation time: 0 hr 19 min 56 sec) 
Heartbeat CPU 0 instructions: 25000000 cycles: 71289129 heartbeat IPC: 0.154378 cumulative IPC: 0.228126 (Simulation time: 0 hr 20 min 45 sec) 
Heartbeat CPU 0 instructions: 26000001 cycles: 77212882 heartbeat IPC: 0.168812 cumulative IPC: 0.223224 (Simulation time: 0 hr 21 min 50 sec) 
Heartbeat CPU 0 instructions: 27000000 cycles: 82671897 heartbeat IPC: 0.183183 cumulative IPC: 0.22039 (Simulation time: 0 hr 22 min 54 sec) 
Heartbeat CPU 0 instructions: 28000000 cycles: 85489134 heartbeat IPC: 0.354958 cumulative IPC: 0.225132 (Simulation time: 0 hr 23 min 49 sec) 
Heartbeat CPU 0 instructions: 29000000 cycles: 87811551 heartbeat IPC: 0.430586 cumulative IPC: 0.230931 (Simulation time: 0 hr 24 min 36 sec) 
Heartbeat CPU 0 instructions: 30000001 cycles: 90079169 heartbeat IPC: 0.440992 cumulative IPC: 0.236566 (Simulation time: 0 hr 25 min 25 sec) 
Heartbeat CPU 0 instructions: 31000000 cycles: 92357112 heartbeat IPC: 0.438992 cumulative IPC: 0.241877 (Simulation time: 0 hr 26 min 12 sec) 
Heartbeat CPU 0 instructions: 32000000 cycles: 94616629 heartbeat IPC: 0.442572 cumulative IPC: 0.246967 (Simulation time: 0 hr 27 min 1 sec) 
Heartbeat CPU 0 instructions: 33000000 cycles: 96866102 heartbeat IPC: 0.444549 cumulative IPC: 0.251834 (Simulation time: 0 hr 27 min 50 sec) 
Heartbeat CPU 0 instructions: 34000000 cycles: 99784072 heartbeat IPC: 0.342704 cumulative IPC: 0.254647 (Simulation time: 0 hr 28 min 41 sec) 
Heartbeat CPU 0 instructions: 35000000 cycles: 114001812 heartbeat IPC: 0.0703347 cumulative IPC: 0.230487 (Simulation time: 0 hr 30 min 45 sec) 
Heartbeat CPU 0 instructions: 36000000 cycles: 117829409 heartbeat IPC: 0.261261 cumulative IPC: 0.231536 (Simulation time: 0 hr 31 min 34 sec) 
Heartbeat CPU 0 instructions: 37000003 cycles: 121614427 heartbeat IPC: 0.2642 cumulative IPC: 0.232601 (Simulation time: 0 hr 32 min 23 sec) 
Heartbeat CPU 0 instructions: 38000000 cycles: 125424078 heartbeat IPC: 0.26249 cumulative IPC: 0.233551 (Simulation time: 0 hr 33 min 12 sec) 
Heartbeat CPU 0 instructions: 39000000 cycles: 129158041 heartbeat IPC: 0.267812 cumulative IPC: 0.234586 (Simulation time: 0 hr 34 min 1 sec) 
Heartbeat CPU 0 instructions: 40000000 cycles: 132809371 heartbeat IPC: 0.273873 cumulative IPC: 0.235713 (Simulation time: 0 hr 34 min 49 sec) 
Heartbeat CPU 0 instructions: 41000000 cycles: 136439915 heartbeat IPC: 0.275441 cumulative IPC: 0.236815 (Simulation time: 0 hr 35 min 35 sec) 
Heartbeat CPU 0 instructions: 42000000 cycles: 140094538 heartbeat IPC: 0.273626 cumulative IPC: 0.237815 (Simulation time: 0 hr 36 min 23 sec) 
Heartbeat CPU 0 instructions: 43000002 cycles: 143756220 heartbeat IPC: 0.273099 cumulative IPC: 0.23875 (Simulation time: 0 hr 37 min 10 sec) 
Heartbeat CPU 0 instructions: 44000000 cycles: 147417262 heartbeat IPC: 0.273146 cumulative IPC: 0.239637 (Simulation time: 0 hr 37 min 57 sec) 
Heartbeat CPU 0 instructions: 45000001 cycles: 151042355 heartbeat IPC: 0.275855 cumulative IPC: 0.240539 (Simulation time: 0 hr 38 min 44 sec) 
Heartbeat CPU 0 instructions: 46000001 cycles: 154645743 heartbeat IPC: 0.277517 cumulative IPC: 0.241433 (Simulation time: 0 hr 39 min 31 sec) 
Heartbeat CPU 0 instructions: 47000001 cycles: 158237571 heartbeat IPC: 0.27841 cumulative IPC: 0.242303 (Simulation time: 0 hr 40 min 16 sec) 
Heartbeat CPU 0 instructions: 48000000 cycles: 161802698 heartbeat IPC: 0.280495 cumulative IPC: 0.243174 (Simulation time: 0 hr 41 min 3 sec) 
Heartbeat CPU 0 instructions: 49000000 cycles: 165385992 heartbeat IPC: 0.279073 cumulative IPC: 0.243979 (Simulation time: 0 hr 41 min 48 sec) 
Heartbeat CPU 0 instructions: 50000003 cycles: 168966441 heartbeat IPC: 0.279295 cumulative IPC: 0.244753 (Simulation time: 0 hr 42 min 36 sec) 
Heartbeat CPU 0 instructions: 51000001 cycles: 172545260 heartbeat IPC: 0.279421 cumulative IPC: 0.245495 (Simulation time: 0 hr 43 min 23 sec) 
Heartbeat CPU 0 instructions: 52000000 cycles: 176110984 heartbeat IPC: 0.280448 cumulative IPC: 0.246226 (Simulation time: 0 hr 44 min 14 sec) 
Heartbeat CPU 0 instructions: 53000001 cycles: 179691634 heartbeat IPC: 0.279279 cumulative IPC: 0.246906 (Simulation time: 0 hr 45 min 1 sec) 
Heartbeat CPU 0 instructions: 54000000 cycles: 183267131 heartbeat IPC: 0.279681 cumulative IPC: 0.247565 (Simulation time: 0 hr 45 min 51 sec) 
Heartbeat CPU 0 instructions: 55000000 cycles: 186851065 heartbeat IPC: 0.279023 cumulative IPC: 0.248187 (Simulation time: 0 hr 46 min 38 sec) 
Heartbeat CPU 0 instructions: 56000000 cycles: 190423837 heartbeat IPC: 0.279895 cumulative IPC: 0.2488 (Simulation time: 0 hr 47 min 26 sec) 
Heartbeat CPU 0 instructions: 57000002 cycles: 193963818 heartbeat IPC: 0.282488 cumulative IPC: 0.249432 (Simulation time: 0 hr 48 min 14 sec) 
Heartbeat CPU 0 instructions: 58000001 cycles: 197509864 heartbeat IPC: 0.282004 cumulative IPC: 0.250034 (Simulation time: 0 hr 49 min 2 sec) 
Heartbeat CPU 0 instructions: 59000003 cycles: 201028262 heartbeat IPC: 0.284221 cumulative IPC: 0.250649 (Simulation time: 0 hr 49 min 48 sec) 
Heartbeat CPU 0 instructions: 60000000 cycles: 204543393 heartbeat IPC: 0.284484 cumulative IPC: 0.251247 (Simulation time: 0 hr 50 min 38 sec) 
Heartbeat CPU 0 instructions: 61000000 cycles: 208054402 heartbeat IPC: 0.284818 cumulative IPC: 0.251829 (Simulation time: 0 hr 51 min 26 sec) 
Heartbeat CPU 0 instructions: 62000003 cycles: 211562089 heartbeat IPC: 0.285089 cumulative IPC: 0.252395 (Simulation time: 0 hr 52 min 13 sec) 
Heartbeat CPU 0 instructions: 63000001 cycles: 215072395 heartbeat IPC: 0.284875 cumulative IPC: 0.252939 (Simulation time: 0 hr 53 min 3 sec) 
Heartbeat CPU 0 instructions: 64000000 cycles: 218602578 heartbeat IPC: 0.283271 cumulative IPC: 0.253442 (Simulation time: 0 hr 53 min 52 sec) 
Heartbeat CPU 0 instructions: 65000000 cycles: 222167235 heartbeat IPC: 0.280532 cumulative IPC: 0.253888 (Simulation time: 0 hr 54 min 40 sec) 
Heartbeat CPU 0 instructions: 66000000 cycles: 225730414 heartbeat IPC: 0.280648 cumulative IPC: 0.254321 (Simulation time: 0 hr 55 min 28 sec) 
Heartbeat CPU 0 instructions: 67000001 cycles: 229462558 heartbeat IPC: 0.267943 cumulative IPC: 0.254548 (Simulation time: 0 hr 56 min 23 sec) 
Heartbeat CPU 0 instructions: 68000000 cycles: 233256877 heartbeat IPC: 0.263552 cumulative IPC: 0.254698 (Simulation time: 0 hr 57 min 17 sec) 
Heartbeat CPU 0 instructions: 69000003 cycles: 237042173 heartbeat IPC: 0.264181 cumulative IPC: 0.254853 (Simulation time: 0 hr 58 min 8 sec) 
Heartbeat CPU 0 instructions: 70000000 cycles: 240869151 heartbeat IPC: 0.261302 cumulative IPC: 0.254958 (Simulation time: 0 hr 58 min 59 sec) 
Heartbeat CPU 0 instructions: 71000002 cycles: 244487896 heartbeat IPC: 0.276339 cumulative IPC: 0.255282 (Simulation time: 0 hr 59 min 49 sec) 
Heartbeat CPU 0 instructions: 72000000 cycles: 248088495 heartbeat IPC: 0.277731 cumulative IPC: 0.255615 (Simulation time: 1 hr 0 min 38 sec) 
Heartbeat CPU 0 instructions: 73000003 cycles: 251687646 heartbeat IPC: 0.277844 cumulative IPC: 0.25594 (Simulation time: 1 hr 1 min 25 sec) 
Heartbeat CPU 0 instructions: 74000000 cycles: 255299658 heartbeat IPC: 0.276853 cumulative IPC: 0.256242 (Simulation time: 1 hr 2 min 13 sec) 
Heartbeat CPU 0 instructions: 75000000 cycles: 258911197 heartbeat IPC: 0.27689 cumulative IPC: 0.256537 (Simulation time: 1 hr 3 min 2 sec) 
Heartbeat CPU 0 instructions: 76000000 cycles: 262545557 heartbeat IPC: 0.275152 cumulative IPC: 0.2568 (Simulation time: 1 hr 3 min 48 sec) 
Heartbeat CPU 0 instructions: 77000000 cycles: 266149297 heartbeat IPC: 0.277489 cumulative IPC: 0.257086 (Simulation time: 1 hr 4 min 37 sec) 
Heartbeat CPU 0 instructions: 78000003 cycles: 269702976 heartbeat IPC: 0.281399 cumulative IPC: 0.257413 (Simulation time: 1 hr 5 min 26 sec) 
Heartbeat CPU 0 instructions: 79000000 cycles: 273284142 heartbeat IPC: 0.279238 cumulative IPC: 0.257705 (Simulation time: 1 hr 6 min 15 sec) 
Heartbeat CPU 0 instructions: 80000000 cycles: 276832659 heartbeat IPC: 0.281808 cumulative IPC: 0.25802 (Simulation time: 1 hr 6 min 58 sec) 
Heartbeat CPU 0 instructions: 81000001 cycles: 280368648 heartbeat IPC: 0.282807 cumulative IPC: 0.258339 (Simulation time: 1 hr 7 min 39 sec) 
Heartbeat CPU 0 instructions: 82000000 cycles: 283909924 heartbeat IPC: 0.282384 cumulative IPC: 0.258645 (Simulation time: 1 hr 8 min 19 sec) 
Heartbeat CPU 0 instructions: 83000003 cycles: 287470901 heartbeat IPC: 0.280823 cumulative IPC: 0.258925 (Simulation time: 1 hr 8 min 58 sec) 
Heartbeat CPU 0 instructions: 84000000 cycles: 291013474 heartbeat IPC: 0.28228 cumulative IPC: 0.259215 (Simulation time: 1 hr 9 min 37 sec) 
Heartbeat CPU 0 instructions: 85000000 cycles: 294549465 heartbeat IPC: 0.282806 cumulative IPC: 0.259504 (Simulation time: 1 hr 10 min 13 sec) 
Heartbeat CPU 0 instructions: 86000001 cycles: 298096927 heartbeat IPC: 0.281892 cumulative IPC: 0.259775 (Simulation time: 1 hr 10 min 46 sec) 
Heartbeat CPU 0 instructions: 87000001 cycles: 301649881 heartbeat IPC: 0.281456 cumulative IPC: 0.260035 (Simulation time: 1 hr 11 min 21 sec) 
Heartbeat CPU 0 instructions: 88000000 cycles: 305192357 heartbeat IPC: 0.282288 cumulative IPC: 0.260298 (Simulation time: 1 hr 11 min 55 sec) 
Heartbeat CPU 0 instructions: 89000003 cycles: 308733398 heartbeat IPC: 0.282404 cumulative IPC: 0.260556 (Simulation time: 1 hr 12 min 30 sec) 
Heartbeat CPU 0 instructions: 90000000 cycles: 312273354 heartbeat IPC: 0.282489 cumulative IPC: 0.260809 (Simulation time: 1 hr 13 min 3 sec) 
Heartbeat CPU 0 instructions: 91000000 cycles: 315802158 heartbeat IPC: 0.283382 cumulative IPC: 0.261066 (Simulation time: 1 hr 13 min 36 sec) 
Heartbeat CPU 0 instructions: 92000000 cycles: 319316071 heartbeat IPC: 0.284583 cumulative IPC: 0.26133 (Simulation time: 1 hr 14 min 7 sec) 
Heartbeat CPU 0 instructions: 93000001 cycles: 322834099 heartbeat IPC: 0.28425 cumulative IPC: 0.261584 (Simulation time: 1 hr 14 min 41 sec) 
Heartbeat CPU 0 instructions: 94000003 cycles: 326339727 heartbeat IPC: 0.285256 cumulative IPC: 0.261842 (Simulation time: 1 hr 15 min 12 sec) 
Heartbeat CPU 0 instructions: 95000002 cycles: 329852683 heartbeat IPC: 0.28466 cumulative IPC: 0.26209 (Simulation time: 1 hr 15 min 43 sec) 
Heartbeat CPU 0 instructions: 96000000 cycles: 333348632 heartbeat IPC: 0.286045 cumulative IPC: 0.262345 (Simulation time: 1 hr 16 min 9 sec) 
Heartbeat CPU 0 instructions: 97000000 cycles: 336839977 heartbeat IPC: 0.286423 cumulative IPC: 0.262599 (Simulation time: 1 hr 16 min 36 sec) 
Heartbeat CPU 0 instructions: 98000000 cycles: 340325260 heartbeat IPC: 0.286921 cumulative IPC: 0.262852 (Simulation time: 1 hr 17 min 3 sec) 
Heartbeat CPU 0 instructions: 99000000 cycles: 343830163 heartbeat IPC: 0.285315 cumulative IPC: 0.263085 (Simulation time: 1 hr 17 min 25 sec) 
Heartbeat CPU 0 instructions: 100000000 cycles: 347363953 heartbeat IPC: 0.282982 cumulative IPC: 0.26329 (Simulation time: 1 hr 17 min 45 sec) 
Heartbeat CPU 0 instructions: 101000003 cycles: 350867819 heartbeat IPC: 0.2854 cumulative IPC: 0.263515 (Simulation time: 1 hr 18 min 4 sec) 
Heartbeat CPU 0 instructions: 102000000 cycles: 354484988 heartbeat IPC: 0.276458 cumulative IPC: 0.263649 (Simulation time: 1 hr 18 min 23 sec) 
Heartbeat CPU 0 instructions: 103000002 cycles: 358811067 heartbeat IPC: 0.231157 cumulative IPC: 0.263251 (Simulation time: 1 hr 18 min 42 sec) 
Heartbeat CPU 0 instructions: 104000000 cycles: 362904364 heartbeat IPC: 0.244301 cumulative IPC: 0.263034 (Simulation time: 1 hr 19 min 0 sec) 
Heartbeat CPU 0 instructions: 105000000 cycles: 366786624 heartbeat IPC: 0.257582 cumulative IPC: 0.262975 (Simulation time: 1 hr 19 min 16 sec) 
Heartbeat CPU 0 instructions: 106000002 cycles: 370630231 heartbeat IPC: 0.260173 cumulative IPC: 0.262946 (Simulation time: 1 hr 19 min 31 sec) 
Heartbeat CPU 0 instructions: 107000001 cycles: 374537362 heartbeat IPC: 0.255942 cumulative IPC: 0.262872 (Simulation time: 1 hr 19 min 45 sec) 
Heartbeat CPU 0 instructions: 108000000 cycles: 378338068 heartbeat IPC: 0.263109 cumulative IPC: 0.262874 (Simulation time: 1 hr 19 min 58 sec) 
Heartbeat CPU 0 instructions: 109000000 cycles: 382057340 heartbeat IPC: 0.26887 cumulative IPC: 0.262933 (Simulation time: 1 hr 20 min 10 sec) 
Heartbeat CPU 0 instructions: 110000002 cycles: 385750365 heartbeat IPC: 0.270781 cumulative IPC: 0.26301 (Simulation time: 1 hr 20 min 20 sec) 
Finished CPU 0 instructions: 100000001 cycles: 380214320 cummulative IPC: 0.26301 (Simulation time: 1 hr 20 min 20 sec) 

ChampSim completed all CPUs

Region of Interest Statistics

CPU 0 cummulative IPC: 0.26301 instructions: 100000001 cycles: 380214320
LLC TOTAL     ACCESS:    2541238  HIT:     335668  MISS:    2205570
LLC LOAD      ACCESS:     647323  HIT:      64084  MISS:     583239
LLC RFO       ACCESS:     278001  HIT:      35097  MISS:     242904
LLC PREFETCH  ACCESS:    1132214  HIT:      79795  MISS:    1052419
LLC WRITEBACK ACCESS:     483700  HIT:     156692  MISS:     327008
Insertion Distribution: 
	LOAD 31291 0 91771 559874 
	RFO 19918 0 54815 291823 
	PREF 0 17645 157450 1143633 
	WRITEBACK 0 0 0 487915 
Total Prefetch Downgrades: 14970
