
*** ChampSim Multicore Out-of-Order Simulator ***

Warmup Instructions: 10000000
Simulation Instructions: 100000000
Configuration: 2
Number of CPUs: 1
LLC sets: 2048
LLC ways: 16
Off-chip DRAM Channels: 1 Width: 64-bit Data Rate: 1600 MT/s

CPU 0 runs /datasets/cs240c-wi22-a00-public/data/Assignment2-gz/milc_409B.trace.gz
CPU 0 L1D next line prefetcher
CPU 0 L2C IP-based stride prefetcher
Initialize SRRIP state
Heartbeat CPU 0 instructions: 1000002 cycles: 407040 heartbeat IPC: 2.45677 cumulative IPC: 2.45677 (Simulation time: 0 hr 0 min 42 sec) 
Heartbeat CPU 0 instructions: 2000002 cycles: 889868 heartbeat IPC: 2.07113 cumulative IPC: 2.24753 (Simulation time: 0 hr 1 min 28 sec) 
Heartbeat CPU 0 instructions: 3000003 cycles: 1672035 heartbeat IPC: 1.2785 cumulative IPC: 1.79422 (Simulation time: 0 hr 2 min 20 sec) 
Heartbeat CPU 0 instructions: 4000000 cycles: 2454292 heartbeat IPC: 1.27835 cumulative IPC: 1.6298 (Simulation time: 0 hr 3 min 10 sec) 
Heartbeat CPU 0 instructions: 5000000 cycles: 3135412 heartbeat IPC: 1.46817 cumulative IPC: 1.59469 (Simulation time: 0 hr 3 min 57 sec) 
Heartbeat CPU 0 instructions: 6000003 cycles: 3679804 heartbeat IPC: 1.83692 cumulative IPC: 1.63052 (Simulation time: 0 hr 4 min 36 sec) 
Heartbeat CPU 0 instructions: 7000002 cycles: 4224110 heartbeat IPC: 1.8372 cumulative IPC: 1.65715 (Simulation time: 0 hr 5 min 16 sec) 
Heartbeat CPU 0 instructions: 8000000 cycles: 4768518 heartbeat IPC: 1.83685 cumulative IPC: 1.67767 (Simulation time: 0 hr 5 min 53 sec) 
Heartbeat CPU 0 instructions: 9000003 cycles: 5312844 heartbeat IPC: 1.83714 cumulative IPC: 1.69401 (Simulation time: 0 hr 6 min 33 sec) 
Heartbeat CPU 0 instructions: 10000000 cycles: 5857232 heartbeat IPC: 1.83692 cumulative IPC: 1.70729 (Simulation time: 0 hr 7 min 14 sec) 

Warmup complete CPU 0 instructions: 10000002 cycles: 5857233 (Simulation time: 0 hr 7 min 14 sec) 

Heartbeat CPU 0 instructions: 11000002 cycles: 7517888 heartbeat IPC: 0.602173 cumulative IPC: 0.602172 (Simulation time: 0 hr 7 min 59 sec) 
Heartbeat CPU 0 instructions: 12000000 cycles: 9178812 heartbeat IPC: 0.602073 cumulative IPC: 0.602123 (Simulation time: 0 hr 8 min 44 sec) 
Heartbeat CPU 0 instructions: 13000003 cycles: 10836402 heartbeat IPC: 0.603287 cumulative IPC: 0.60251 (Simulation time: 0 hr 9 min 32 sec) 
Heartbeat CPU 0 instructions: 14000002 cycles: 12494954 heartbeat IPC: 0.602935 cumulative IPC: 0.602616 (Simulation time: 0 hr 10 min 20 sec) 
Heartbeat CPU 0 instructions: 15000001 cycles: 14150928 heartbeat IPC: 0.603874 cumulative IPC: 0.602867 (Simulation time: 0 hr 11 min 6 sec) 
Heartbeat CPU 0 instructions: 16000000 cycles: 15811279 heartbeat IPC: 0.602282 cumulative IPC: 0.60277 (Simulation time: 0 hr 11 min 52 sec) 
Heartbeat CPU 0 instructions: 17000002 cycles: 17472045 heartbeat IPC: 0.602133 cumulative IPC: 0.602679 (Simulation time: 0 hr 12 min 37 sec) 
Heartbeat CPU 0 instructions: 18000000 cycles: 19131035 heartbeat IPC: 0.602775 cumulative IPC: 0.602691 (Simulation time: 0 hr 13 min 21 sec) 
Heartbeat CPU 0 instructions: 19000003 cycles: 20787684 heartbeat IPC: 0.60363 cumulative IPC: 0.602795 (Simulation time: 0 hr 14 min 8 sec) 
Heartbeat CPU 0 instructions: 20000000 cycles: 22444808 heartbeat IPC: 0.603453 cumulative IPC: 0.602861 (Simulation time: 0 hr 14 min 52 sec) 
Heartbeat CPU 0 instructions: 21000001 cycles: 24097607 heartbeat IPC: 0.605035 cumulative IPC: 0.603058 (Simulation time: 0 hr 15 min 36 sec) 
Heartbeat CPU 0 instructions: 22000002 cycles: 25756921 heartbeat IPC: 0.602659 cumulative IPC: 0.603025 (Simulation time: 0 hr 16 min 25 sec) 
Heartbeat CPU 0 instructions: 23000002 cycles: 27415371 heartbeat IPC: 0.602973 cumulative IPC: 0.603021 (Simulation time: 0 hr 17 min 13 sec) 
Heartbeat CPU 0 instructions: 24000000 cycles: 29070445 heartbeat IPC: 0.604201 cumulative IPC: 0.603105 (Simulation time: 0 hr 18 min 5 sec) 
Heartbeat CPU 0 instructions: 25000002 cycles: 30731165 heartbeat IPC: 0.60215 cumulative IPC: 0.603041 (Simulation time: 0 hr 18 min 49 sec) 
Heartbeat CPU 0 instructions: 26000000 cycles: 32385483 heartbeat IPC: 0.604477 cumulative IPC: 0.603131 (Simulation time: 0 hr 19 min 37 sec) 
Heartbeat CPU 0 instructions: 27000002 cycles: 34037233 heartbeat IPC: 0.60542 cumulative IPC: 0.603265 (Simulation time: 0 hr 20 min 25 sec) 
Heartbeat CPU 0 instructions: 28000000 cycles: 35699174 heartbeat IPC: 0.601705 cumulative IPC: 0.603178 (Simulation time: 0 hr 21 min 10 sec) 
Heartbeat CPU 0 instructions: 29000002 cycles: 37347846 heartbeat IPC: 0.60655 cumulative IPC: 0.603354 (Simulation time: 0 hr 21 min 59 sec) 
Heartbeat CPU 0 instructions: 30000000 cycles: 39000758 heartbeat IPC: 0.604992 cumulative IPC: 0.603436 (Simulation time: 0 hr 22 min 46 sec) 
Heartbeat CPU 0 instructions: 31000000 cycles: 40657436 heartbeat IPC: 0.603618 cumulative IPC: 0.603445 (Simulation time: 0 hr 23 min 31 sec) 
Heartbeat CPU 0 instructions: 32000000 cycles: 42314605 heartbeat IPC: 0.603439 cumulative IPC: 0.603444 (Simulation time: 0 hr 24 min 17 sec) 
Heartbeat CPU 0 instructions: 33000000 cycles: 43973105 heartbeat IPC: 0.602954 cumulative IPC: 0.603423 (Simulation time: 0 hr 25 min 3 sec) 
Heartbeat CPU 0 instructions: 34000000 cycles: 45633925 heartbeat IPC: 0.602112 cumulative IPC: 0.603368 (Simulation time: 0 hr 25 min 50 sec) 
Heartbeat CPU 0 instructions: 35000002 cycles: 47287090 heartbeat IPC: 0.604901 cumulative IPC: 0.60343 (Simulation time: 0 hr 26 min 35 sec) 
Heartbeat CPU 0 instructions: 36000000 cycles: 48941483 heartbeat IPC: 0.60445 cumulative IPC: 0.603469 (Simulation time: 0 hr 27 min 19 sec) 
Heartbeat CPU 0 instructions: 37000000 cycles: 50598390 heartbeat IPC: 0.603534 cumulative IPC: 0.603471 (Simulation time: 0 hr 28 min 2 sec) 
Heartbeat CPU 0 instructions: 38000002 cycles: 52252464 heartbeat IPC: 0.604569 cumulative IPC: 0.60351 (Simulation time: 0 hr 28 min 48 sec) 
Heartbeat CPU 0 instructions: 39000001 cycles: 53909401 heartbeat IPC: 0.603523 cumulative IPC: 0.603511 (Simulation time: 0 hr 29 min 35 sec) 
Heartbeat CPU 0 instructions: 40000000 cycles: 55567347 heartbeat IPC: 0.603155 cumulative IPC: 0.603499 (Simulation time: 0 hr 30 min 22 sec) 
Heartbeat CPU 0 instructions: 41000002 cycles: 57220722 heartbeat IPC: 0.604825 cumulative IPC: 0.603542 (Simulation time: 0 hr 31 min 10 sec) 
Heartbeat CPU 0 instructions: 42000001 cycles: 58877188 heartbeat IPC: 0.603694 cumulative IPC: 0.603546 (Simulation time: 0 hr 31 min 56 sec) 
Heartbeat CPU 0 instructions: 43000000 cycles: 60533063 heartbeat IPC: 0.60391 cumulative IPC: 0.603557 (Simulation time: 0 hr 32 min 42 sec) 
Heartbeat CPU 0 instructions: 44000000 cycles: 62193651 heartbeat IPC: 0.602196 cumulative IPC: 0.603517 (Simulation time: 0 hr 33 min 28 sec) 
Heartbeat CPU 0 instructions: 45000000 cycles: 63849339 heartbeat IPC: 0.603979 cumulative IPC: 0.60353 (Simulation time: 0 hr 34 min 15 sec) 
Heartbeat CPU 0 instructions: 46000000 cycles: 65505681 heartbeat IPC: 0.60374 cumulative IPC: 0.603536 (Simulation time: 0 hr 35 min 0 sec) 
Heartbeat CPU 0 instructions: 47000002 cycles: 67164134 heartbeat IPC: 0.602973 cumulative IPC: 0.603521 (Simulation time: 0 hr 35 min 46 sec) 
Heartbeat CPU 0 instructions: 48000000 cycles: 68820994 heartbeat IPC: 0.60355 cumulative IPC: 0.603522 (Simulation time: 0 hr 36 min 30 sec) 
Heartbeat CPU 0 instructions: 49000000 cycles: 70471574 heartbeat IPC: 0.605848 cumulative IPC: 0.603581 (Simulation time: 0 hr 37 min 17 sec) 
Heartbeat CPU 0 instructions: 50000001 cycles: 72128245 heartbeat IPC: 0.603621 cumulative IPC: 0.603582 (Simulation time: 0 hr 38 min 1 sec) 
Heartbeat CPU 0 instructions: 51000002 cycles: 73781876 heartbeat IPC: 0.60473 cumulative IPC: 0.60361 (Simulation time: 0 hr 38 min 47 sec) 
Heartbeat CPU 0 instructions: 52000000 cycles: 75598478 heartbeat IPC: 0.550477 cumulative IPC: 0.602226 (Simulation time: 0 hr 39 min 32 sec) 
Heartbeat CPU 0 instructions: 53000001 cycles: 77744610 heartbeat IPC: 0.465955 cumulative IPC: 0.598158 (Simulation time: 0 hr 40 min 23 sec) 
Heartbeat CPU 0 instructions: 54000001 cycles: 79971969 heartbeat IPC: 0.448962 cumulative IPC: 0.593674 (Simulation time: 0 hr 41 min 15 sec) 
Heartbeat CPU 0 instructions: 55000002 cycles: 82220073 heartbeat IPC: 0.44482 cumulative IPC: 0.589292 (Simulation time: 0 hr 42 min 5 sec) 
Heartbeat CPU 0 instructions: 56000000 cycles: 84473765 heartbeat IPC: 0.443715 cumulative IPC: 0.585119 (Simulation time: 0 hr 43 min 0 sec) 
Heartbeat CPU 0 instructions: 57000000 cycles: 86715151 heartbeat IPC: 0.446153 cumulative IPC: 0.581266 (Simulation time: 0 hr 43 min 52 sec) 
Heartbeat CPU 0 instructions: 58000002 cycles: 88924771 heartbeat IPC: 0.452567 cumulative IPC: 0.577843 (Simulation time: 0 hr 44 min 47 sec) 
Heartbeat CPU 0 instructions: 59000001 cycles: 90702167 heartbeat IPC: 0.56262 cumulative IPC: 0.577524 (Simulation time: 0 hr 45 min 34 sec) 
Heartbeat CPU 0 instructions: 60000000 cycles: 92364405 heartbeat IPC: 0.601598 cumulative IPC: 0.577987 (Simulation time: 0 hr 46 min 20 sec) 
Heartbeat CPU 0 instructions: 61000000 cycles: 94022248 heartbeat IPC: 0.603193 cumulative IPC: 0.578461 (Simulation time: 0 hr 47 min 4 sec) 
Heartbeat CPU 0 instructions: 62000000 cycles: 95680043 heartbeat IPC: 0.603211 cumulative IPC: 0.578918 (Simulation time: 0 hr 47 min 50 sec) 
Heartbeat CPU 0 instructions: 63000003 cycles: 97338843 heartbeat IPC: 0.602847 cumulative IPC: 0.579351 (Simulation time: 0 hr 48 min 34 sec) 
Heartbeat CPU 0 instructions: 64000000 cycles: 99007817 heartbeat IPC: 0.599169 cumulative IPC: 0.579706 (Simulation time: 0 hr 49 min 20 sec) 
Heartbeat CPU 0 instructions: 65000002 cycles: 100679410 heartbeat IPC: 0.598233 cumulative IPC: 0.580033 (Simulation time: 0 hr 50 min 4 sec) 
Heartbeat CPU 0 instructions: 66000002 cycles: 102342593 heartbeat IPC: 0.601257 cumulative IPC: 0.580399 (Simulation time: 0 hr 50 min 50 sec) 
Heartbeat CPU 0 instructions: 67000001 cycles: 104008843 heartbeat IPC: 0.600149 cumulative IPC: 0.580734 (Simulation time: 0 hr 51 min 35 sec) 
Heartbeat CPU 0 instructions: 68000000 cycles: 105677244 heartbeat IPC: 0.599376 cumulative IPC: 0.581046 (Simulation time: 0 hr 52 min 19 sec) 
Heartbeat CPU 0 instructions: 69000000 cycles: 107348726 heartbeat IPC: 0.598271 cumulative IPC: 0.581329 (Simulation time: 0 hr 53 min 4 sec) 
Heartbeat CPU 0 instructions: 70000000 cycles: 109017175 heartbeat IPC: 0.599359 cumulative IPC: 0.581621 (Simulation time: 0 hr 53 min 50 sec) 
Heartbeat CPU 0 instructions: 71000002 cycles: 110683914 heartbeat IPC: 0.599975 cumulative IPC: 0.581913 (Simulation time: 0 hr 54 min 37 sec) 
Heartbeat CPU 0 instructions: 72000000 cycles: 112352315 heartbeat IPC: 0.599375 cumulative IPC: 0.582186 (Simulation time: 0 hr 55 min 22 sec) 
Heartbeat CPU 0 instructions: 73000003 cycles: 114017140 heartbeat IPC: 0.600666 cumulative IPC: 0.582471 (Simulation time: 0 hr 56 min 7 sec) 
Heartbeat CPU 0 instructions: 74000002 cycles: 115691431 heartbeat IPC: 0.597267 cumulative IPC: 0.582696 (Simulation time: 0 hr 56 min 54 sec) 
Heartbeat CPU 0 instructions: 75000003 cycles: 117355552 heartbeat IPC: 0.600918 cumulative IPC: 0.582968 (Simulation time: 0 hr 57 min 39 sec) 
Heartbeat CPU 0 instructions: 76000000 cycles: 119024386 heartbeat IPC: 0.599219 cumulative IPC: 0.583208 (Simulation time: 0 hr 58 min 22 sec) 
Heartbeat CPU 0 instructions: 77000003 cycles: 120696687 heartbeat IPC: 0.59798 cumulative IPC: 0.583423 (Simulation time: 0 hr 59 min 5 sec) 
Heartbeat CPU 0 instructions: 78000000 cycles: 122362695 heartbeat IPC: 0.600235 cumulative IPC: 0.583664 (Simulation time: 0 hr 59 min 49 sec) 
Heartbeat CPU 0 instructions: 79000000 cycles: 124030147 heartbeat IPC: 0.599717 cumulative IPC: 0.58389 (Simulation time: 1 hr 0 min 31 sec) 
Heartbeat CPU 0 instructions: 80000000 cycles: 125694734 heartbeat IPC: 0.60075 cumulative IPC: 0.584124 (Simulation time: 1 hr 1 min 14 sec) 
Heartbeat CPU 0 instructions: 81000000 cycles: 127359676 heartbeat IPC: 0.600622 cumulative IPC: 0.58435 (Simulation time: 1 hr 1 min 56 sec) 
Heartbeat CPU 0 instructions: 82000002 cycles: 129019595 heartbeat IPC: 0.60244 cumulative IPC: 0.584594 (Simulation time: 1 hr 2 min 39 sec) 
Heartbeat CPU 0 instructions: 83000003 cycles: 130677799 heartbeat IPC: 0.603063 cumulative IPC: 0.58484 (Simulation time: 1 hr 3 min 22 sec) 
Heartbeat CPU 0 instructions: 84000000 cycles: 132336421 heartbeat IPC: 0.602908 cumulative IPC: 0.585076 (Simulation time: 1 hr 4 min 2 sec) 
Heartbeat CPU 0 instructions: 85000001 cycles: 133998589 heartbeat IPC: 0.601624 cumulative IPC: 0.585291 (Simulation time: 1 hr 4 min 43 sec) 
Heartbeat CPU 0 instructions: 86000002 cycles: 135660120 heartbeat IPC: 0.601855 cumulative IPC: 0.585503 (Simulation time: 1 hr 5 min 27 sec) 
Heartbeat CPU 0 instructions: 87000003 cycles: 137322390 heartbeat IPC: 0.601588 cumulative IPC: 0.585707 (Simulation time: 1 hr 6 min 10 sec) 
Heartbeat CPU 0 instructions: 88000000 cycles: 138987695 heartbeat IPC: 0.600489 cumulative IPC: 0.585891 (Simulation time: 1 hr 6 min 49 sec) 
Heartbeat CPU 0 instructions: 89000001 cycles: 140653387 heartbeat IPC: 0.600352 cumulative IPC: 0.58607 (Simulation time: 1 hr 7 min 25 sec) 
Heartbeat CPU 0 instructions: 90000002 cycles: 142315575 heartbeat IPC: 0.601617 cumulative IPC: 0.586259 (Simulation time: 1 hr 8 min 0 sec) 
Heartbeat CPU 0 instructions: 91000000 cycles: 143974256 heartbeat IPC: 0.602887 cumulative IPC: 0.586459 (Simulation time: 1 hr 8 min 33 sec) 
Heartbeat CPU 0 instructions: 92000000 cycles: 145633564 heartbeat IPC: 0.602661 cumulative IPC: 0.586652 (Simulation time: 1 hr 9 min 5 sec) 
Heartbeat CPU 0 instructions: 93000003 cycles: 147297032 heartbeat IPC: 0.601156 cumulative IPC: 0.586822 (Simulation time: 1 hr 9 min 38 sec) 
Heartbeat CPU 0 instructions: 94000002 cycles: 148960707 heartbeat IPC: 0.601078 cumulative IPC: 0.586988 (Simulation time: 1 hr 10 min 9 sec) 
Heartbeat CPU 0 instructions: 95000003 cycles: 150618757 heartbeat IPC: 0.603119 cumulative IPC: 0.587173 (Simulation time: 1 hr 10 min 39 sec) 
Heartbeat CPU 0 instructions: 96000000 cycles: 152280593 heartbeat IPC: 0.601742 cumulative IPC: 0.587338 (Simulation time: 1 hr 11 min 8 sec) 
Heartbeat CPU 0 instructions: 97000001 cycles: 153943359 heartbeat IPC: 0.601408 cumulative IPC: 0.587496 (Simulation time: 1 hr 11 min 37 sec) 
Heartbeat CPU 0 instructions: 98000002 cycles: 155603584 heartbeat IPC: 0.602329 cumulative IPC: 0.58766 (Simulation time: 1 hr 12 min 7 sec) 
Heartbeat CPU 0 instructions: 99000003 cycles: 157266362 heartbeat IPC: 0.601404 cumulative IPC: 0.587811 (Simulation time: 1 hr 12 min 36 sec) 
Heartbeat CPU 0 instructions: 100000000 cycles: 158926367 heartbeat IPC: 0.602406 cumulative IPC: 0.58797 (Simulation time: 1 hr 13 min 4 sec) 
Heartbeat CPU 0 instructions: 101000001 cycles: 160583509 heartbeat IPC: 0.603449 cumulative IPC: 0.588135 (Simulation time: 1 hr 13 min 33 sec) 
Heartbeat CPU 0 instructions: 102000002 cycles: 162246395 heartbeat IPC: 0.601365 cumulative IPC: 0.588276 (Simulation time: 1 hr 14 min 0 sec) 
Heartbeat CPU 0 instructions: 103000000 cycles: 163908990 heartbeat IPC: 0.601468 cumulative IPC: 0.588415 (Simulation time: 1 hr 14 min 29 sec) 
Heartbeat CPU 0 instructions: 104000000 cycles: 165570663 heartbeat IPC: 0.601803 cumulative IPC: 0.588554 (Simulation time: 1 hr 14 min 56 sec) 
Heartbeat CPU 0 instructions: 105000003 cycles: 167427506 heartbeat IPC: 0.53855 cumulative IPC: 0.587979 (Simulation time: 1 hr 15 min 23 sec) 
Heartbeat CPU 0 instructions: 106000003 cycles: 171237472 heartbeat IPC: 0.26247 cumulative IPC: 0.58048 (Simulation time: 1 hr 16 min 1 sec) 
Heartbeat CPU 0 instructions: 107000000 cycles: 172980634 heartbeat IPC: 0.573668 cumulative IPC: 0.580409 (Simulation time: 1 hr 16 min 19 sec) 
Heartbeat CPU 0 instructions: 108000000 cycles: 174709027 heartbeat IPC: 0.578572 cumulative IPC: 0.580391 (Simulation time: 1 hr 16 min 39 sec) 
Heartbeat CPU 0 instructions: 109000001 cycles: 176432862 heartbeat IPC: 0.580103 cumulative IPC: 0.580388 (Simulation time: 1 hr 16 min 58 sec) 
Heartbeat CPU 0 instructions: 110000001 cycles: 178155845 heartbeat IPC: 0.580389 cumulative IPC: 0.580388 (Simulation time: 1 hr 17 min 15 sec) 
Finished CPU 0 instructions: 100000003 cycles: 172298613 cummulative IPC: 0.580388 (Simulation time: 1 hr 17 min 15 sec) 

ChampSim completed all CPUs

Region of Interest Statistics

CPU 0 cummulative IPC: 0.580388 instructions: 100000003 cycles: 172298613
LLC TOTAL     ACCESS:    3300884  HIT:      83294  MISS:    3217590
LLC LOAD      ACCESS:     970576  HIT:        170  MISS:     970406
LLC RFO       ACCESS:     136847  HIT:      14929  MISS:     121918
LLC PREFETCH  ACCESS:    1335372  HIT:       9906  MISS:    1325466
LLC WRITEBACK ACCESS:     858089  HIT:      58289  MISS:     799800
Insertion Distribution: 
	LOAD 0 0 356871 661253 
	RFO 0 0 45518 217411 
	PREF 0 0 117434 1435091 
	WRITEBACK 0 0 0 942425 
Total Prefetch Downgrades: 0
