
*** ChampSim Multicore Out-of-Order Simulator ***

Warmup Instructions: 10000000
Simulation Instructions: 100000000
Configuration: 2
Number of CPUs: 1
LLC sets: 2048
LLC ways: 16
Off-chip DRAM Channels: 1 Width: 64-bit Data Rate: 1600 MT/s

CPU 0 runs /datasets/cs240c-wi22-a00-public/data/Assignment2-gz/mcf_46B.trace.gz
CPU 0 L1D next line prefetcher
CPU 0 L2C IP-based stride prefetcher
Initialize SRRIP state
Heartbeat CPU 0 instructions: 1000002 cycles: 492207 heartbeat IPC: 2.03167 cumulative IPC: 2.03167 (Simulation time: 0 hr 0 min 46 sec) 
Heartbeat CPU 0 instructions: 2000002 cycles: 987209 heartbeat IPC: 2.02019 cumulative IPC: 2.02592 (Simulation time: 0 hr 1 min 31 sec) 
Heartbeat CPU 0 instructions: 3000003 cycles: 1513426 heartbeat IPC: 1.90036 cumulative IPC: 1.98226 (Simulation time: 0 hr 2 min 16 sec) 
Heartbeat CPU 0 instructions: 4000000 cycles: 2031555 heartbeat IPC: 1.93002 cumulative IPC: 1.96894 (Simulation time: 0 hr 3 min 0 sec) 
Heartbeat CPU 0 instructions: 5000000 cycles: 2524523 heartbeat IPC: 2.02853 cumulative IPC: 1.98057 (Simulation time: 0 hr 3 min 43 sec) 
Heartbeat CPU 0 instructions: 6000002 cycles: 3027190 heartbeat IPC: 1.98939 cumulative IPC: 1.98204 (Simulation time: 0 hr 4 min 26 sec) 
Heartbeat CPU 0 instructions: 7000001 cycles: 3572655 heartbeat IPC: 1.8333 cumulative IPC: 1.95933 (Simulation time: 0 hr 5 min 9 sec) 
Heartbeat CPU 0 instructions: 8000000 cycles: 4062752 heartbeat IPC: 2.04041 cumulative IPC: 1.96911 (Simulation time: 0 hr 5 min 53 sec) 
Heartbeat CPU 0 instructions: 9000001 cycles: 4545572 heartbeat IPC: 2.07117 cumulative IPC: 1.97995 (Simulation time: 0 hr 6 min 38 sec) 
Heartbeat CPU 0 instructions: 10000001 cycles: 5083887 heartbeat IPC: 1.85765 cumulative IPC: 1.967 (Simulation time: 0 hr 7 min 25 sec) 

Warmup complete CPU 0 instructions: 10000001 cycles: 5083887 (Simulation time: 0 hr 7 min 25 sec) 

Heartbeat CPU 0 instructions: 11000002 cycles: 15462238 heartbeat IPC: 0.0963545 cumulative IPC: 0.0963545 (Simulation time: 0 hr 8 min 44 sec) 
Heartbeat CPU 0 instructions: 12000000 cycles: 19586648 heartbeat IPC: 0.242458 cumulative IPC: 0.137905 (Simulation time: 0 hr 9 min 43 sec) 
Heartbeat CPU 0 instructions: 13000000 cycles: 26876155 heartbeat IPC: 0.137183 cumulative IPC: 0.137663 (Simulation time: 0 hr 10 min 46 sec) 
Heartbeat CPU 0 instructions: 14000003 cycles: 41399100 heartbeat IPC: 0.0688568 cumulative IPC: 0.110147 (Simulation time: 0 hr 12 min 17 sec) 
Heartbeat CPU 0 instructions: 15000000 cycles: 45613244 heartbeat IPC: 0.237295 cumulative IPC: 0.123367 (Simulation time: 0 hr 13 min 11 sec) 
Heartbeat CPU 0 instructions: 16000000 cycles: 49423956 heartbeat IPC: 0.262418 cumulative IPC: 0.135318 (Simulation time: 0 hr 14 min 7 sec) 
Heartbeat CPU 0 instructions: 17000002 cycles: 65045506 heartbeat IPC: 0.0640143 cumulative IPC: 0.116741 (Simulation time: 0 hr 15 min 33 sec) 
Heartbeat CPU 0 instructions: 18000001 cycles: 70308809 heartbeat IPC: 0.189995 cumulative IPC: 0.122653 (Simulation time: 0 hr 16 min 38 sec) 
Heartbeat CPU 0 instructions: 19000002 cycles: 74883567 heartbeat IPC: 0.218591 cumulative IPC: 0.12894 (Simulation time: 0 hr 17 min 28 sec) 
Heartbeat CPU 0 instructions: 20000000 cycles: 87032085 heartbeat IPC: 0.0823144 cumulative IPC: 0.122028 (Simulation time: 0 hr 18 min 44 sec) 
Heartbeat CPU 0 instructions: 21000002 cycles: 102972837 heartbeat IPC: 0.0627324 cumulative IPC: 0.112372 (Simulation time: 0 hr 20 min 10 sec) 
Heartbeat CPU 0 instructions: 22000002 cycles: 107274268 heartbeat IPC: 0.232481 cumulative IPC: 0.117428 (Simulation time: 0 hr 21 min 15 sec) 
Heartbeat CPU 0 instructions: 23000001 cycles: 111130694 heartbeat IPC: 0.259307 cumulative IPC: 0.122587 (Simulation time: 0 hr 22 min 12 sec) 
Heartbeat CPU 0 instructions: 24000000 cycles: 124243874 heartbeat IPC: 0.0762591 cumulative IPC: 0.117489 (Simulation time: 0 hr 23 min 36 sec) 
Heartbeat CPU 0 instructions: 25000002 cycles: 132094363 heartbeat IPC: 0.127381 cumulative IPC: 0.118101 (Simulation time: 0 hr 24 min 50 sec) 
Heartbeat CPU 0 instructions: 26000001 cycles: 135954552 heartbeat IPC: 0.259054 cumulative IPC: 0.122258 (Simulation time: 0 hr 25 min 46 sec) 
Heartbeat CPU 0 instructions: 27000000 cycles: 145604894 heartbeat IPC: 0.103623 cumulative IPC: 0.120978 (Simulation time: 0 hr 26 min 59 sec) 
Heartbeat CPU 0 instructions: 28000000 cycles: 157200079 heartbeat IPC: 0.0862427 cumulative IPC: 0.118331 (Simulation time: 0 hr 28 min 22 sec) 
Heartbeat CPU 0 instructions: 29000001 cycles: 161542178 heartbeat IPC: 0.230304 cumulative IPC: 0.121438 (Simulation time: 0 hr 29 min 24 sec) 
Heartbeat CPU 0 instructions: 30000000 cycles: 168783174 heartbeat IPC: 0.138102 cumulative IPC: 0.122175 (Simulation time: 0 hr 30 min 33 sec) 
Heartbeat CPU 0 instructions: 31000001 cycles: 182491176 heartbeat IPC: 0.0729502 cumulative IPC: 0.118372 (Simulation time: 0 hr 32 min 4 sec) 
Heartbeat CPU 0 instructions: 32000000 cycles: 186783975 heartbeat IPC: 0.232948 cumulative IPC: 0.121079 (Simulation time: 0 hr 33 min 5 sec) 
Heartbeat CPU 0 instructions: 33000000 cycles: 193061400 heartbeat IPC: 0.159301 cumulative IPC: 0.122355 (Simulation time: 0 hr 34 min 11 sec) 
Heartbeat CPU 0 instructions: 34000000 cycles: 207983745 heartbeat IPC: 0.0670136 cumulative IPC: 0.118285 (Simulation time: 0 hr 35 min 42 sec) 
Heartbeat CPU 0 instructions: 35000000 cycles: 213961092 heartbeat IPC: 0.167298 cumulative IPC: 0.119688 (Simulation time: 0 hr 36 min 49 sec) 
Heartbeat CPU 0 instructions: 36000000 cycles: 219972704 heartbeat IPC: 0.166345 cumulative IPC: 0.120993 (Simulation time: 0 hr 37 min 53 sec) 
Heartbeat CPU 0 instructions: 37000002 cycles: 229869597 heartbeat IPC: 0.101042 cumulative IPC: 0.120114 (Simulation time: 0 hr 39 min 10 sec) 
Heartbeat CPU 0 instructions: 38000001 cycles: 240829182 heartbeat IPC: 0.0912442 cumulative IPC: 0.118772 (Simulation time: 0 hr 40 min 30 sec) 
Heartbeat CPU 0 instructions: 39000000 cycles: 244915106 heartbeat IPC: 0.244742 cumulative IPC: 0.120918 (Simulation time: 0 hr 41 min 27 sec) 
Heartbeat CPU 0 instructions: 40000000 cycles: 250731378 heartbeat IPC: 0.171931 cumulative IPC: 0.122126 (Simulation time: 0 hr 42 min 29 sec) 
Heartbeat CPU 0 instructions: 41000000 cycles: 265780130 heartbeat IPC: 0.0664507 cumulative IPC: 0.118912 (Simulation time: 0 hr 44 min 4 sec) 
Heartbeat CPU 0 instructions: 42000001 cycles: 270434935 heartbeat IPC: 0.214832 cumulative IPC: 0.120595 (Simulation time: 0 hr 45 min 3 sec) 
Heartbeat CPU 0 instructions: 43000000 cycles: 274401821 heartbeat IPC: 0.252087 cumulative IPC: 0.122532 (Simulation time: 0 hr 46 min 3 sec) 
Heartbeat CPU 0 instructions: 44000000 cycles: 287936098 heartbeat IPC: 0.0738865 cumulative IPC: 0.120204 (Simulation time: 0 hr 47 min 33 sec) 
Heartbeat CPU 0 instructions: 45000001 cycles: 295417256 heartbeat IPC: 0.133669 cumulative IPC: 0.120551 (Simulation time: 0 hr 48 min 47 sec) 
Heartbeat CPU 0 instructions: 46000001 cycles: 299500052 heartbeat IPC: 0.24493 cumulative IPC: 0.122276 (Simulation time: 0 hr 49 min 45 sec) 
Heartbeat CPU 0 instructions: 47000002 cycles: 308857120 heartbeat IPC: 0.106871 cumulative IPC: 0.121801 (Simulation time: 0 hr 51 min 1 sec) 
Heartbeat CPU 0 instructions: 48000000 cycles: 320664870 heartbeat IPC: 0.08469 cumulative IPC: 0.120413 (Simulation time: 0 hr 52 min 26 sec) 
Heartbeat CPU 0 instructions: 49000000 cycles: 325111489 heartbeat IPC: 0.22489 cumulative IPC: 0.121864 (Simulation time: 0 hr 53 min 28 sec) 
Heartbeat CPU 0 instructions: 50000001 cycles: 331263686 heartbeat IPC: 0.162544 cumulative IPC: 0.122632 (Simulation time: 0 hr 54 min 34 sec) 
Heartbeat CPU 0 instructions: 51000001 cycles: 346043964 heartbeat IPC: 0.0676577 cumulative IPC: 0.120249 (Simulation time: 0 hr 56 min 15 sec) 
Heartbeat CPU 0 instructions: 52000000 cycles: 350522865 heartbeat IPC: 0.223269 cumulative IPC: 0.121584 (Simulation time: 0 hr 57 min 15 sec) 
Heartbeat CPU 0 instructions: 53000000 cycles: 354595589 heartbeat IPC: 0.245536 cumulative IPC: 0.123029 (Simulation time: 0 hr 58 min 12 sec) 
Heartbeat CPU 0 instructions: 54000002 cycles: 370544315 heartbeat IPC: 0.0627011 cumulative IPC: 0.120396 (Simulation time: 0 hr 59 min 49 sec) 
Heartbeat CPU 0 instructions: 55000002 cycles: 375703342 heartbeat IPC: 0.193835 cumulative IPC: 0.121418 (Simulation time: 1 hr 0 min 52 sec) 
Heartbeat CPU 0 instructions: 56000000 cycles: 379926103 heartbeat IPC: 0.236811 cumulative IPC: 0.122718 (Simulation time: 1 hr 1 min 47 sec) 
Heartbeat CPU 0 instructions: 57000000 cycles: 393469936 heartbeat IPC: 0.0738343 cumulative IPC: 0.121014 (Simulation time: 1 hr 3 min 9 sec) 
Heartbeat CPU 0 instructions: 58000000 cycles: 400979458 heartbeat IPC: 0.133164 cumulative IPC: 0.121244 (Simulation time: 1 hr 4 min 10 sec) 
Heartbeat CPU 0 instructions: 59000002 cycles: 405129691 heartbeat IPC: 0.240951 cumulative IPC: 0.122486 (Simulation time: 1 hr 4 min 59 sec) 
Heartbeat CPU 0 instructions: 60000000 cycles: 416849406 heartbeat IPC: 0.0853261 cumulative IPC: 0.121428 (Simulation time: 1 hr 6 min 11 sec) 
Heartbeat CPU 0 instructions: 61000002 cycles: 426381648 heartbeat IPC: 0.104907 cumulative IPC: 0.121055 (Simulation time: 1 hr 7 min 13 sec) 
Heartbeat CPU 0 instructions: 62000001 cycles: 430520704 heartbeat IPC: 0.241601 cumulative IPC: 0.122227 (Simulation time: 1 hr 8 min 0 sec) 
Heartbeat CPU 0 instructions: 63000001 cycles: 440511514 heartbeat IPC: 0.100092 cumulative IPC: 0.121719 (Simulation time: 1 hr 8 min 58 sec) 
Heartbeat CPU 0 instructions: 64000000 cycles: 452000251 heartbeat IPC: 0.0870417 cumulative IPC: 0.120828 (Simulation time: 1 hr 9 min 58 sec) 
Heartbeat CPU 0 instructions: 65000002 cycles: 457423087 heartbeat IPC: 0.184406 cumulative IPC: 0.12159 (Simulation time: 1 hr 10 min 40 sec) 
Heartbeat CPU 0 instructions: 66000000 cycles: 463672783 heartbeat IPC: 0.160007 cumulative IPC: 0.122114 (Simulation time: 1 hr 11 min 22 sec) 
Heartbeat CPU 0 instructions: 67000002 cycles: 479972213 heartbeat IPC: 0.061352 cumulative IPC: 0.120028 (Simulation time: 1 hr 12 min 28 sec) 
Heartbeat CPU 0 instructions: 68000000 cycles: 484385354 heartbeat IPC: 0.226596 cumulative IPC: 0.121009 (Simulation time: 1 hr 13 min 5 sec) 
Heartbeat CPU 0 instructions: 69000000 cycles: 488407029 heartbeat IPC: 0.248653 cumulative IPC: 0.122072 (Simulation time: 1 hr 13 min 40 sec) 
Heartbeat CPU 0 instructions: 70000001 cycles: 502871239 heartbeat IPC: 0.0691362 cumulative IPC: 0.120533 (Simulation time: 1 hr 14 min 34 sec) 
Heartbeat CPU 0 instructions: 71000002 cycles: 511157183 heartbeat IPC: 0.120686 cumulative IPC: 0.120536 (Simulation time: 1 hr 15 min 13 sec) 
Heartbeat CPU 0 instructions: 72000000 cycles: 515859736 heartbeat IPC: 0.21265 cumulative IPC: 0.121384 (Simulation time: 1 hr 15 min 45 sec) 
Heartbeat CPU 0 instructions: 73000002 cycles: 524875419 heartbeat IPC: 0.110918 cumulative IPC: 0.121202 (Simulation time: 1 hr 16 min 22 sec) 
Heartbeat CPU 0 instructions: 74000001 cycles: 537110088 heartbeat IPC: 0.0817349 cumulative IPC: 0.120295 (Simulation time: 1 hr 17 min 7 sec) 
Heartbeat CPU 0 instructions: 75000001 cycles: 541561546 heartbeat IPC: 0.224645 cumulative IPC: 0.121161 (Simulation time: 1 hr 17 min 31 sec) 
Heartbeat CPU 0 instructions: 76000000 cycles: 547480396 heartbeat IPC: 0.168952 cumulative IPC: 0.121682 (Simulation time: 1 hr 17 min 56 sec) 
Heartbeat CPU 0 instructions: 77000001 cycles: 563660165 heartbeat IPC: 0.0618056 cumulative IPC: 0.119948 (Simulation time: 1 hr 18 min 30 sec) 
Heartbeat CPU 0 instructions: 78000002 cycles: 568412135 heartbeat IPC: 0.210439 cumulative IPC: 0.120711 (Simulation time: 1 hr 18 min 52 sec) 
Heartbeat CPU 0 instructions: 79000001 cycles: 572664924 heartbeat IPC: 0.23514 cumulative IPC: 0.121569 (Simulation time: 1 hr 19 min 10 sec) 
Heartbeat CPU 0 instructions: 80000000 cycles: 586145679 heartbeat IPC: 0.0741797 cumulative IPC: 0.120469 (Simulation time: 1 hr 19 min 37 sec) 
Heartbeat CPU 0 instructions: 81000000 cycles: 593649566 heartbeat IPC: 0.133264 cumulative IPC: 0.120632 (Simulation time: 1 hr 19 min 56 sec) 
Heartbeat CPU 0 instructions: 82000000 cycles: 598441546 heartbeat IPC: 0.208682 cumulative IPC: 0.121343 (Simulation time: 1 hr 20 min 11 sec) 
Heartbeat CPU 0 instructions: 83000001 cycles: 608075372 heartbeat IPC: 0.103801 cumulative IPC: 0.121063 (Simulation time: 1 hr 20 min 26 sec) 
Heartbeat CPU 0 instructions: 84000000 cycles: 619605847 heartbeat IPC: 0.0867266 cumulative IPC: 0.120419 (Simulation time: 1 hr 20 min 40 sec) 
Heartbeat CPU 0 instructions: 85000001 cycles: 623791817 heartbeat IPC: 0.238893 cumulative IPC: 0.12122 (Simulation time: 1 hr 20 min 49 sec) 
Heartbeat CPU 0 instructions: 86000000 cycles: 631679540 heartbeat IPC: 0.126779 cumulative IPC: 0.12129 (Simulation time: 1 hr 20 min 58 sec) 
Heartbeat CPU 0 instructions: 87000000 cycles: 646542173 heartbeat IPC: 0.0672828 cumulative IPC: 0.120039 (Simulation time: 1 hr 21 min 9 sec) 
Heartbeat CPU 0 instructions: 88000000 cycles: 652626318 heartbeat IPC: 0.164362 cumulative IPC: 0.120455 (Simulation time: 1 hr 21 min 17 sec) 
Heartbeat CPU 0 instructions: 89000000 cycles: 656711359 heartbeat IPC: 0.244796 cumulative IPC: 0.121235 (Simulation time: 1 hr 21 min 24 sec) 
Heartbeat CPU 0 instructions: 90000003 cycles: 668768935 heartbeat IPC: 0.0829357 cumulative IPC: 0.120539 (Simulation time: 1 hr 21 min 34 sec) 
Heartbeat CPU 0 instructions: 91000000 cycles: 678002021 heartbeat IPC: 0.108306 cumulative IPC: 0.120371 (Simulation time: 1 hr 21 min 43 sec) 
Heartbeat CPU 0 instructions: 92000000 cycles: 682200798 heartbeat IPC: 0.238165 cumulative IPC: 0.121102 (Simulation time: 1 hr 21 min 50 sec) 
Heartbeat CPU 0 instructions: 93000002 cycles: 691146337 heartbeat IPC: 0.111788 cumulative IPC: 0.12098 (Simulation time: 1 hr 21 min 59 sec) 
Heartbeat CPU 0 instructions: 94000002 cycles: 703012910 heartbeat IPC: 0.0842703 cumulative IPC: 0.120356 (Simulation time: 1 hr 22 min 9 sec) 
Heartbeat CPU 0 instructions: 95000000 cycles: 708714318 heartbeat IPC: 0.175395 cumulative IPC: 0.120802 (Simulation time: 1 hr 22 min 17 sec) 
Heartbeat CPU 0 instructions: 96000000 cycles: 714203016 heartbeat IPC: 0.182193 cumulative IPC: 0.121277 (Simulation time: 1 hr 22 min 24 sec) 
Heartbeat CPU 0 instructions: 97000000 cycles: 729440017 heartbeat IPC: 0.0656297 cumulative IPC: 0.120107 (Simulation time: 1 hr 22 min 36 sec) 
Heartbeat CPU 0 instructions: 98000002 cycles: 734091692 heartbeat IPC: 0.214977 cumulative IPC: 0.120712 (Simulation time: 1 hr 22 min 42 sec) 
Heartbeat CPU 0 instructions: 99000002 cycles: 738670626 heartbeat IPC: 0.218391 cumulative IPC: 0.121322 (Simulation time: 1 hr 22 min 49 sec) 
Heartbeat CPU 0 instructions: 100000000 cycles: 753021560 heartbeat IPC: 0.0696817 cumulative IPC: 0.120331 (Simulation time: 1 hr 23 min 0 sec) 
Heartbeat CPU 0 instructions: 101000000 cycles: 759823812 heartbeat IPC: 0.14701 cumulative IPC: 0.120571 (Simulation time: 1 hr 23 min 9 sec) 
Heartbeat CPU 0 instructions: 102000003 cycles: 763958796 heartbeat IPC: 0.24184 cumulative IPC: 0.121232 (Simulation time: 1 hr 23 min 16 sec) 
Heartbeat CPU 0 instructions: 103000003 cycles: 776078652 heartbeat IPC: 0.0825092 cumulative IPC: 0.120623 (Simulation time: 1 hr 23 min 26 sec) 
Heartbeat CPU 0 instructions: 104000000 cycles: 787041606 heartbeat IPC: 0.091216 cumulative IPC: 0.120211 (Simulation time: 1 hr 23 min 35 sec) 
Heartbeat CPU 0 instructions: 105000000 cycles: 791682168 heartbeat IPC: 0.215491 cumulative IPC: 0.120773 (Simulation time: 1 hr 23 min 43 sec) 
Heartbeat CPU 0 instructions: 106000000 cycles: 795730917 heartbeat IPC: 0.24699 cumulative IPC: 0.12142 (Simulation time: 1 hr 23 min 49 sec) 
Heartbeat CPU 0 instructions: 107000002 cycles: 811480851 heartbeat IPC: 0.0634925 cumulative IPC: 0.120288 (Simulation time: 1 hr 24 min 1 sec) 
Heartbeat CPU 0 instructions: 108000000 cycles: 816728825 heartbeat IPC: 0.190549 cumulative IPC: 0.120742 (Simulation time: 1 hr 24 min 9 sec) 
Heartbeat CPU 0 instructions: 109000001 cycles: 820977882 heartbeat IPC: 0.235347 cumulative IPC: 0.121339 (Simulation time: 1 hr 24 min 15 sec) 
Heartbeat CPU 0 instructions: 110000002 cycles: 830808099 heartbeat IPC: 0.101727 cumulative IPC: 0.121106 (Simulation time: 1 hr 24 min 25 sec) 
Finished CPU 0 instructions: 100000001 cycles: 825724212 cummulative IPC: 0.121106 (Simulation time: 1 hr 24 min 25 sec) 

ChampSim completed all CPUs

Region of Interest Statistics

CPU 0 cummulative IPC: 0.121106 instructions: 100000001 cycles: 825724212
LLC TOTAL     ACCESS:   18751201  HIT:    8228480  MISS:   10522721
LLC LOAD      ACCESS:    8468439  HIT:    4395420  MISS:    4073019
LLC RFO       ACCESS:     206376  HIT:      69217  MISS:     137159
LLC PREFETCH  ACCESS:    7968952  HIT:    2082359  MISS:    5886593
LLC WRITEBACK ACCESS:    2107434  HIT:    1681484  MISS:     425950
Insertion Distribution: 
	LOAD 828429 0 638781 2926372 
	RFO 51695 0 49060 49136 
	PREF 0 1396184 884877 4228046 
	WRITEBACK 0 0 0 482382 
Total Prefetch Downgrades: 1156669
