
*** ChampSim Multicore Out-of-Order Simulator ***

Warmup Instructions: 10000000
Simulation Instructions: 100000000
Configuration: 2
Number of CPUs: 1
LLC sets: 2048
LLC ways: 16
Off-chip DRAM Channels: 1 Width: 64-bit Data Rate: 1600 MT/s

CPU 0 runs /datasets/cs240c-wi22-a00-public/data/Assignment2-gz/wrf_1228B.trace.gz
CPU 0 L1D next line prefetcher
CPU 0 L2C IP-based stride prefetcher
Initialize SRRIP state
Heartbeat CPU 0 instructions: 1000003 cycles: 591063 heartbeat IPC: 1.69187 cumulative IPC: 1.69187 (Simulation time: 0 hr 0 min 46 sec) 
Heartbeat CPU 0 instructions: 2000003 cycles: 1111231 heartbeat IPC: 1.92246 cumulative IPC: 1.79981 (Simulation time: 0 hr 1 min 26 sec) 
Heartbeat CPU 0 instructions: 3000000 cycles: 1729200 heartbeat IPC: 1.6182 cumulative IPC: 1.73491 (Simulation time: 0 hr 2 min 8 sec) 
Heartbeat CPU 0 instructions: 4000000 cycles: 2349850 heartbeat IPC: 1.61121 cumulative IPC: 1.70224 (Simulation time: 0 hr 2 min 54 sec) 
Heartbeat CPU 0 instructions: 5000000 cycles: 3052214 heartbeat IPC: 1.42376 cumulative IPC: 1.63816 (Simulation time: 0 hr 3 min 37 sec) 
Heartbeat CPU 0 instructions: 6000000 cycles: 3612301 heartbeat IPC: 1.78544 cumulative IPC: 1.66099 (Simulation time: 0 hr 4 min 16 sec) 
Heartbeat CPU 0 instructions: 7000001 cycles: 4165066 heartbeat IPC: 1.80909 cumulative IPC: 1.68065 (Simulation time: 0 hr 4 min 56 sec) 
Heartbeat CPU 0 instructions: 8000000 cycles: 4716433 heartbeat IPC: 1.81367 cumulative IPC: 1.6962 (Simulation time: 0 hr 5 min 36 sec) 
Heartbeat CPU 0 instructions: 9000002 cycles: 5266620 heartbeat IPC: 1.81757 cumulative IPC: 1.70888 (Simulation time: 0 hr 6 min 15 sec) 
Heartbeat CPU 0 instructions: 10000001 cycles: 5819517 heartbeat IPC: 1.80865 cumulative IPC: 1.71836 (Simulation time: 0 hr 6 min 54 sec) 

Warmup complete CPU 0 instructions: 10000001 cycles: 5819517 (Simulation time: 0 hr 6 min 54 sec) 

Heartbeat CPU 0 instructions: 11000003 cycles: 6777800 heartbeat IPC: 1.04354 cumulative IPC: 1.04354 (Simulation time: 0 hr 7 min 35 sec) 
Heartbeat CPU 0 instructions: 12000000 cycles: 7770432 heartbeat IPC: 1.00742 cumulative IPC: 1.02516 (Simulation time: 0 hr 8 min 16 sec) 
Heartbeat CPU 0 instructions: 13000003 cycles: 8754164 heartbeat IPC: 1.01654 cumulative IPC: 1.02227 (Simulation time: 0 hr 8 min 57 sec) 
Heartbeat CPU 0 instructions: 14000002 cycles: 9708687 heartbeat IPC: 1.04764 cumulative IPC: 1.0285 (Simulation time: 0 hr 9 min 36 sec) 
Heartbeat CPU 0 instructions: 15000001 cycles: 10584583 heartbeat IPC: 1.14169 cumulative IPC: 1.0493 (Simulation time: 0 hr 10 min 11 sec) 
Heartbeat CPU 0 instructions: 16000000 cycles: 11464575 heartbeat IPC: 1.13637 cumulative IPC: 1.06288 (Simulation time: 0 hr 10 min 47 sec) 
Heartbeat CPU 0 instructions: 17000002 cycles: 12347762 heartbeat IPC: 1.13227 cumulative IPC: 1.07226 (Simulation time: 0 hr 11 min 20 sec) 
Heartbeat CPU 0 instructions: 18000003 cycles: 13257413 heartbeat IPC: 1.09932 cumulative IPC: 1.07557 (Simulation time: 0 hr 11 min 59 sec) 
Heartbeat CPU 0 instructions: 19000000 cycles: 14149028 heartbeat IPC: 1.12156 cumulative IPC: 1.0805 (Simulation time: 0 hr 12 min 33 sec) 
Heartbeat CPU 0 instructions: 20000000 cycles: 15051946 heartbeat IPC: 1.10752 cumulative IPC: 1.08314 (Simulation time: 0 hr 13 min 13 sec) 
Heartbeat CPU 0 instructions: 21000000 cycles: 15964781 heartbeat IPC: 1.09549 cumulative IPC: 1.08425 (Simulation time: 0 hr 13 min 52 sec) 
Heartbeat CPU 0 instructions: 22000000 cycles: 16896130 heartbeat IPC: 1.07371 cumulative IPC: 1.08336 (Simulation time: 0 hr 14 min 34 sec) 
Heartbeat CPU 0 instructions: 23000003 cycles: 17850772 heartbeat IPC: 1.04752 cumulative IPC: 1.08052 (Simulation time: 0 hr 15 min 17 sec) 
Heartbeat CPU 0 instructions: 24000000 cycles: 18813384 heartbeat IPC: 1.03884 cumulative IPC: 1.07743 (Simulation time: 0 hr 15 min 51 sec) 
Heartbeat CPU 0 instructions: 25000000 cycles: 19800804 heartbeat IPC: 1.01274 cumulative IPC: 1.07286 (Simulation time: 0 hr 16 min 33 sec) 
Heartbeat CPU 0 instructions: 26000003 cycles: 20835374 heartbeat IPC: 0.966588 cumulative IPC: 1.06554 (Simulation time: 0 hr 17 min 9 sec) 
Heartbeat CPU 0 instructions: 27000003 cycles: 21885681 heartbeat IPC: 0.952103 cumulative IPC: 1.05812 (Simulation time: 0 hr 17 min 49 sec) 
Heartbeat CPU 0 instructions: 28000000 cycles: 22958952 heartbeat IPC: 0.931728 cumulative IPC: 1.05021 (Simulation time: 0 hr 18 min 26 sec) 
Heartbeat CPU 0 instructions: 29000003 cycles: 24455681 heartbeat IPC: 0.668126 cumulative IPC: 1.01952 (Simulation time: 0 hr 19 min 11 sec) 
Heartbeat CPU 0 instructions: 30000000 cycles: 26004471 heartbeat IPC: 0.645663 cumulative IPC: 0.990837 (Simulation time: 0 hr 20 min 0 sec) 
Heartbeat CPU 0 instructions: 31000003 cycles: 27771045 heartbeat IPC: 0.566069 cumulative IPC: 0.956653 (Simulation time: 0 hr 20 min 44 sec) 
Heartbeat CPU 0 instructions: 32000000 cycles: 29481957 heartbeat IPC: 0.584482 cumulative IPC: 0.929743 (Simulation time: 0 hr 21 min 33 sec) 
Heartbeat CPU 0 instructions: 33000001 cycles: 30870709 heartbeat IPC: 0.720072 cumulative IPC: 0.91812 (Simulation time: 0 hr 22 min 19 sec) 
Heartbeat CPU 0 instructions: 34000002 cycles: 32287663 heartbeat IPC: 0.70574 cumulative IPC: 0.90675 (Simulation time: 0 hr 23 min 8 sec) 
Heartbeat CPU 0 instructions: 35000001 cycles: 34273361 heartbeat IPC: 0.503601 cumulative IPC: 0.878616 (Simulation time: 0 hr 24 min 0 sec) 
Heartbeat CPU 0 instructions: 36000000 cycles: 35251376 heartbeat IPC: 1.02248 cumulative IPC: 0.883396 (Simulation time: 0 hr 24 min 43 sec) 
Heartbeat CPU 0 instructions: 37000001 cycles: 36200193 heartbeat IPC: 1.05395 cumulative IPC: 0.888723 (Simulation time: 0 hr 25 min 27 sec) 
Heartbeat CPU 0 instructions: 38000003 cycles: 37106953 heartbeat IPC: 1.10283 cumulative IPC: 0.894928 (Simulation time: 0 hr 26 min 7 sec) 
Heartbeat CPU 0 instructions: 39000002 cycles: 38010876 heartbeat IPC: 1.10629 cumulative IPC: 0.900863 (Simulation time: 0 hr 26 min 49 sec) 
Heartbeat CPU 0 instructions: 40000000 cycles: 38895790 heartbeat IPC: 1.13005 cumulative IPC: 0.906995 (Simulation time: 0 hr 27 min 29 sec) 
Heartbeat CPU 0 instructions: 41000000 cycles: 39785245 heartbeat IPC: 1.12428 cumulative IPC: 0.912685 (Simulation time: 0 hr 28 min 12 sec) 
Heartbeat CPU 0 instructions: 42000002 cycles: 40675595 heartbeat IPC: 1.12316 cumulative IPC: 0.918061 (Simulation time: 0 hr 28 min 54 sec) 
Heartbeat CPU 0 instructions: 43000000 cycles: 41559010 heartbeat IPC: 1.13197 cumulative IPC: 0.923348 (Simulation time: 0 hr 29 min 39 sec) 
Heartbeat CPU 0 instructions: 44000000 cycles: 42402500 heartbeat IPC: 1.18555 cumulative IPC: 0.929394 (Simulation time: 0 hr 30 min 18 sec) 
Heartbeat CPU 0 instructions: 45000000 cycles: 43228350 heartbeat IPC: 1.21087 cumulative IPC: 0.935608 (Simulation time: 0 hr 30 min 58 sec) 
Heartbeat CPU 0 instructions: 46000001 cycles: 44034529 heartbeat IPC: 1.24042 cumulative IPC: 0.942038 (Simulation time: 0 hr 31 min 34 sec) 
Heartbeat CPU 0 instructions: 47000001 cycles: 44858695 heartbeat IPC: 1.21335 cumulative IPC: 0.947766 (Simulation time: 0 hr 32 min 12 sec) 
Heartbeat CPU 0 instructions: 48000000 cycles: 45666461 heartbeat IPC: 1.23798 cumulative IPC: 0.953649 (Simulation time: 0 hr 32 min 51 sec) 
Heartbeat CPU 0 instructions: 49000001 cycles: 46491115 heartbeat IPC: 1.21263 cumulative IPC: 0.9589 (Simulation time: 0 hr 33 min 27 sec) 
Heartbeat CPU 0 instructions: 50000002 cycles: 47313080 heartbeat IPC: 1.2166 cumulative IPC: 0.964005 (Simulation time: 0 hr 34 min 4 sec) 
Heartbeat CPU 0 instructions: 51000001 cycles: 48129135 heartbeat IPC: 1.22541 cumulative IPC: 0.969047 (Simulation time: 0 hr 34 min 40 sec) 
Heartbeat CPU 0 instructions: 52000000 cycles: 49026110 heartbeat IPC: 1.11486 cumulative IPC: 0.972074 (Simulation time: 0 hr 35 min 18 sec) 
Heartbeat CPU 0 instructions: 53000002 cycles: 49990033 heartbeat IPC: 1.03743 cumulative IPC: 0.9735 (Simulation time: 0 hr 36 min 1 sec) 
Heartbeat CPU 0 instructions: 54000001 cycles: 50938084 heartbeat IPC: 1.05479 cumulative IPC: 0.975208 (Simulation time: 0 hr 36 min 41 sec) 
Heartbeat CPU 0 instructions: 55000001 cycles: 51859090 heartbeat IPC: 1.08577 cumulative IPC: 0.97742 (Simulation time: 0 hr 37 min 23 sec) 
Heartbeat CPU 0 instructions: 56000000 cycles: 52788100 heartbeat IPC: 1.07641 cumulative IPC: 0.979378 (Simulation time: 0 hr 38 min 3 sec) 
Heartbeat CPU 0 instructions: 57000001 cycles: 53713299 heartbeat IPC: 1.08085 cumulative IPC: 0.981338 (Simulation time: 0 hr 38 min 44 sec) 
Heartbeat CPU 0 instructions: 58000000 cycles: 54629832 heartbeat IPC: 1.09107 cumulative IPC: 0.983399 (Simulation time: 0 hr 39 min 26 sec) 
Heartbeat CPU 0 instructions: 59000001 cycles: 56542619 heartbeat IPC: 0.522798 cumulative IPC: 0.966029 (Simulation time: 0 hr 40 min 16 sec) 
Heartbeat CPU 0 instructions: 60000000 cycles: 58107756 heartbeat IPC: 0.638921 cumulative IPC: 0.956238 (Simulation time: 0 hr 41 min 4 sec) 
Heartbeat CPU 0 instructions: 61000000 cycles: 59787374 heartbeat IPC: 0.595373 cumulative IPC: 0.945007 (Simulation time: 0 hr 41 min 51 sec) 
Heartbeat CPU 0 instructions: 62000000 cycles: 61308757 heartbeat IPC: 0.657297 cumulative IPC: 0.937119 (Simulation time: 0 hr 42 min 37 sec) 
Heartbeat CPU 0 instructions: 63000001 cycles: 62707633 heartbeat IPC: 0.71486 cumulative IPC: 0.931653 (Simulation time: 0 hr 43 min 25 sec) 
Heartbeat CPU 0 instructions: 64000000 cycles: 64159437 heartbeat IPC: 0.688798 cumulative IPC: 0.92561 (Simulation time: 0 hr 44 min 14 sec) 
Heartbeat CPU 0 instructions: 65000003 cycles: 65654259 heartbeat IPC: 0.668978 cumulative IPC: 0.919198 (Simulation time: 0 hr 45 min 3 sec) 
Heartbeat CPU 0 instructions: 66000000 cycles: 67149848 heartbeat IPC: 0.668631 cumulative IPC: 0.913088 (Simulation time: 0 hr 45 min 54 sec) 
Heartbeat CPU 0 instructions: 67000000 cycles: 68644368 heartbeat IPC: 0.669111 cumulative IPC: 0.907284 (Simulation time: 0 hr 46 min 43 sec) 
Heartbeat CPU 0 instructions: 68000000 cycles: 70138818 heartbeat IPC: 0.669142 cumulative IPC: 0.901751 (Simulation time: 0 hr 47 min 34 sec) 
Heartbeat CPU 0 instructions: 69000000 cycles: 71646064 heartbeat IPC: 0.663462 cumulative IPC: 0.896295 (Simulation time: 0 hr 48 min 22 sec) 
Heartbeat CPU 0 instructions: 70000001 cycles: 73142643 heartbeat IPC: 0.668191 cumulative IPC: 0.891224 (Simulation time: 0 hr 49 min 12 sec) 
Heartbeat CPU 0 instructions: 71000001 cycles: 74636710 heartbeat IPC: 0.669314 cumulative IPC: 0.886406 (Simulation time: 0 hr 50 min 1 sec) 
Heartbeat CPU 0 instructions: 72000000 cycles: 76119664 heartbeat IPC: 0.674329 cumulative IPC: 0.881933 (Simulation time: 0 hr 50 min 49 sec) 
Heartbeat CPU 0 instructions: 73000003 cycles: 77607371 heartbeat IPC: 0.672177 cumulative IPC: 0.877586 (Simulation time: 0 hr 51 min 40 sec) 
Heartbeat CPU 0 instructions: 74000000 cycles: 79104898 heartbeat IPC: 0.667766 cumulative IPC: 0.873298 (Simulation time: 0 hr 52 min 30 sec) 
Heartbeat CPU 0 instructions: 75000001 cycles: 80598867 heartbeat IPC: 0.669359 cumulative IPC: 0.869224 (Simulation time: 0 hr 53 min 21 sec) 
Heartbeat CPU 0 instructions: 76000000 cycles: 82095300 heartbeat IPC: 0.668255 cumulative IPC: 0.865281 (Simulation time: 0 hr 54 min 11 sec) 
Heartbeat CPU 0 instructions: 77000003 cycles: 83589094 heartbeat IPC: 0.669438 cumulative IPC: 0.861519 (Simulation time: 0 hr 55 min 0 sec) 
Heartbeat CPU 0 instructions: 78000001 cycles: 85083784 heartbeat IPC: 0.669034 cumulative IPC: 0.85789 (Simulation time: 0 hr 55 min 50 sec) 
Heartbeat CPU 0 instructions: 79000000 cycles: 86580214 heartbeat IPC: 0.668256 cumulative IPC: 0.854376 (Simulation time: 0 hr 56 min 40 sec) 
Heartbeat CPU 0 instructions: 80000000 cycles: 88070598 heartbeat IPC: 0.670968 cumulative IPC: 0.851053 (Simulation time: 0 hr 57 min 25 sec) 
Heartbeat CPU 0 instructions: 81000001 cycles: 89554531 heartbeat IPC: 0.673886 cumulative IPC: 0.847913 (Simulation time: 0 hr 58 min 12 sec) 
Heartbeat CPU 0 instructions: 82000000 cycles: 91037493 heartbeat IPC: 0.674325 cumulative IPC: 0.844892 (Simulation time: 0 hr 58 min 57 sec) 
Heartbeat CPU 0 instructions: 83000000 cycles: 92520844 heartbeat IPC: 0.674149 cumulative IPC: 0.841971 (Simulation time: 0 hr 59 min 42 sec) 
Heartbeat CPU 0 instructions: 84000000 cycles: 94015742 heartbeat IPC: 0.668942 cumulative IPC: 0.839038 (Simulation time: 1 hr 0 min 26 sec) 
Heartbeat CPU 0 instructions: 85000000 cycles: 95510624 heartbeat IPC: 0.668949 cumulative IPC: 0.836203 (Simulation time: 1 hr 1 min 9 sec) 
Heartbeat CPU 0 instructions: 86000000 cycles: 97004715 heartbeat IPC: 0.669303 cumulative IPC: 0.833469 (Simulation time: 1 hr 1 min 52 sec) 
Heartbeat CPU 0 instructions: 87000000 cycles: 98499570 heartbeat IPC: 0.668961 cumulative IPC: 0.830815 (Simulation time: 1 hr 2 min 34 sec) 
Heartbeat CPU 0 instructions: 88000000 cycles: 99994787 heartbeat IPC: 0.668799 cumulative IPC: 0.828243 (Simulation time: 1 hr 3 min 13 sec) 
Heartbeat CPU 0 instructions: 89000002 cycles: 101490415 heartbeat IPC: 0.668617 cumulative IPC: 0.825747 (Simulation time: 1 hr 3 min 54 sec) 
Heartbeat CPU 0 instructions: 90000000 cycles: 102974751 heartbeat IPC: 0.673701 cumulative IPC: 0.823425 (Simulation time: 1 hr 4 min 35 sec) 
Heartbeat CPU 0 instructions: 91000000 cycles: 104458411 heartbeat IPC: 0.674009 cumulative IPC: 0.821177 (Simulation time: 1 hr 5 min 17 sec) 
Heartbeat CPU 0 instructions: 92000000 cycles: 105942252 heartbeat IPC: 0.673927 cumulative IPC: 0.818995 (Simulation time: 1 hr 5 min 55 sec) 
Heartbeat CPU 0 instructions: 93000000 cycles: 107431993 heartbeat IPC: 0.671258 cumulative IPC: 0.816829 (Simulation time: 1 hr 6 min 36 sec) 
Heartbeat CPU 0 instructions: 94000003 cycles: 108925846 heartbeat IPC: 0.669412 cumulative IPC: 0.814693 (Simulation time: 1 hr 7 min 16 sec) 
Heartbeat CPU 0 instructions: 95000000 cycles: 110421648 heartbeat IPC: 0.668536 cumulative IPC: 0.812603 (Simulation time: 1 hr 7 min 52 sec) 
Heartbeat CPU 0 instructions: 96000000 cycles: 111915602 heartbeat IPC: 0.669365 cumulative IPC: 0.810586 (Simulation time: 1 hr 8 min 29 sec) 
Heartbeat CPU 0 instructions: 97000001 cycles: 113411150 heartbeat IPC: 0.668652 cumulative IPC: 0.808613 (Simulation time: 1 hr 9 min 4 sec) 
Heartbeat CPU 0 instructions: 98000003 cycles: 114906508 heartbeat IPC: 0.668738 cumulative IPC: 0.806696 (Simulation time: 1 hr 9 min 37 sec) 
Heartbeat CPU 0 instructions: 99000000 cycles: 116395613 heartbeat IPC: 0.671542 cumulative IPC: 0.804876 (Simulation time: 1 hr 10 min 9 sec) 
Heartbeat CPU 0 instructions: 100000000 cycles: 117879006 heartbeat IPC: 0.67413 cumulative IPC: 0.803145 (Simulation time: 1 hr 10 min 42 sec) 
Heartbeat CPU 0 instructions: 101000000 cycles: 119362215 heartbeat IPC: 0.674214 cumulative IPC: 0.801461 (Simulation time: 1 hr 11 min 12 sec) 
Heartbeat CPU 0 instructions: 102000003 cycles: 120845798 heartbeat IPC: 0.674046 cumulative IPC: 0.799817 (Simulation time: 1 hr 11 min 43 sec) 
Heartbeat CPU 0 instructions: 103000003 cycles: 122342060 heartbeat IPC: 0.668332 cumulative IPC: 0.798129 (Simulation time: 1 hr 12 min 13 sec) 
Heartbeat CPU 0 instructions: 104000000 cycles: 123836708 heartbeat IPC: 0.669052 cumulative IPC: 0.796494 (Simulation time: 1 hr 12 min 43 sec) 
Heartbeat CPU 0 instructions: 105000000 cycles: 125331518 heartbeat IPC: 0.668981 cumulative IPC: 0.794899 (Simulation time: 1 hr 13 min 14 sec) 
Heartbeat CPU 0 instructions: 106000000 cycles: 126826576 heartbeat IPC: 0.66887 cumulative IPC: 0.793342 (Simulation time: 1 hr 13 min 42 sec) 
Heartbeat CPU 0 instructions: 107000000 cycles: 128322423 heartbeat IPC: 0.668518 cumulative IPC: 0.791818 (Simulation time: 1 hr 14 min 11 sec) 
Heartbeat CPU 0 instructions: 108000000 cycles: 129818004 heartbeat IPC: 0.668636 cumulative IPC: 0.790332 (Simulation time: 1 hr 14 min 37 sec) 
Heartbeat CPU 0 instructions: 109000003 cycles: 131300865 heartbeat IPC: 0.674374 cumulative IPC: 0.788962 (Simulation time: 1 hr 15 min 4 sec) 
Heartbeat CPU 0 instructions: 110000001 cycles: 132784064 heartbeat IPC: 0.674217 cumulative IPC: 0.787621 (Simulation time: 1 hr 15 min 31 sec) 
Finished CPU 0 instructions: 100000000 cycles: 126964547 cummulative IPC: 0.787621 (Simulation time: 1 hr 15 min 31 sec) 

ChampSim completed all CPUs

Region of Interest Statistics

CPU 0 cummulative IPC: 0.787621 instructions: 100000000 cycles: 126964547
LLC TOTAL     ACCESS:    1495380  HIT:     533053  MISS:     962327
LLC LOAD      ACCESS:      89824  HIT:      28458  MISS:      61366
LLC RFO       ACCESS:     219210  HIT:      37894  MISS:     181316
LLC PREFETCH  ACCESS:     750197  HIT:     176222  MISS:     573975
LLC WRITEBACK ACCESS:     436149  HIT:     290479  MISS:     145670
Insertion Distribution: 
	LOAD 2444 0 12252 51521 
	RFO 52298 0 73902 130219 
	PREF 0 551 145189 596469 
	WRITEBACK 0 0 0 197629 
Total Prefetch Downgrades: 4264
