Initialize SIGNATURE TABLE
ST_SET: 1
ST_WAY: 256
ST_TAG_BIT: 16
ST_TAG_MASK: ffff

Initialize PATTERN TABLE
PT_SET: 512
PT_WAY: 4
SIG_DELTA_BIT: 7
C_SIG_BIT: 4
C_DELTA_BIT: 4

Initialize PREFETCH FILTER
FILTER_SET: 1024

*** ChampSim Multicore Out-of-Order Simulator ***

Warmup Instructions: 50000000
Simulation Instructions: 50000000
Number of CPUs: 1
LLC sets: 2048
LLC ways: 16
Off-chip DRAM Size: 4096 MB Channels: 1 Width: 64-bit Data Rate: 3200 MT/s

CPU 0 runs /Users/gandhardeshpande/Desktop/CSE240C/HW1/ChampSim/ipc1_public/client_002.champsimtrace.xz
L1I Barca has been initializedCPU 0 L1D next line prefetcher
Heartbeat CPU 0 instructions: 10000000 cycles: 3405129 heartbeat IPC: 2.93675 cumulative IPC: 2.93675 (Simulation time: 0 hr 0 min 21 sec) 
Heartbeat CPU 0 instructions: 20000002 cycles: 6860871 heartbeat IPC: 2.89374 cumulative IPC: 2.91508 (Simulation time: 0 hr 0 min 42 sec) 
Heartbeat CPU 0 instructions: 30000001 cycles: 10293895 heartbeat IPC: 2.91288 cumulative IPC: 2.91435 (Simulation time: 0 hr 1 min 4 sec) 
Heartbeat CPU 0 instructions: 40000002 cycles: 13726872 heartbeat IPC: 2.91292 cumulative IPC: 2.91399 (Simulation time: 0 hr 1 min 26 sec) 
Heartbeat CPU 0 instructions: 50000002 cycles: 17167718 heartbeat IPC: 2.90626 cumulative IPC: 2.91244 (Simulation time: 0 hr 1 min 48 sec) 

Warmup complete CPU 0 instructions: 50000002 cycles: 17167718 (Simulation time: 0 hr 1 min 48 sec) 

Heartbeat CPU 0 instructions: 60000002 cycles: 23138589 heartbeat IPC: 1.6748 cumulative IPC: 1.6748 (Simulation time: 0 hr 2 min 8 sec) 
Heartbeat CPU 0 instructions: 70000001 cycles: 29164918 heartbeat IPC: 1.65938 cumulative IPC: 1.66706 (Simulation time: 0 hr 2 min 28 sec) 
Heartbeat CPU 0 instructions: 80000002 cycles: 35079890 heartbeat IPC: 1.69063 cumulative IPC: 1.67484 (Simulation time: 0 hr 2 min 49 sec) 
Heartbeat CPU 0 instructions: 90000000 cycles: 41566186 heartbeat IPC: 1.54171 cumulative IPC: 1.63945 (Simulation time: 0 hr 3 min 9 sec) 
Heartbeat CPU 0 instructions: 100000003 cycles: 47531101 heartbeat IPC: 1.67647 cumulative IPC: 1.64672 (Simulation time: 0 hr 3 min 30 sec) 
Finished CPU 0 instructions: 50000001 cycles: 30363383 cumulative IPC: 1.64672 (Simulation time: 0 hr 3 min 30 sec) 

ChampSim completed all CPUs

Region of Interest Statistics

CPU 0 cumulative IPC: 1.64672 instructions: 50000001 cycles: 30363383
L1D TOTAL     ACCESS:   19114406  HIT:   18775134  MISS:     339272
L1D LOAD      ACCESS:    6479680  HIT:    6362731  MISS:     116949
L1D RFO       ACCESS:    6417757  HIT:    6327817  MISS:      89940
L1D PREFETCH  ACCESS:    6216969  HIT:    6084586  MISS:     132383
L1D WRITEBACK ACCESS:          0  HIT:          0  MISS:          0
L1D PREFETCH  REQUESTED:    6490135  ISSUED:    6288073  USEFUL:      53589  USELESS:      78936
L1D AVERAGE MISS LATENCY: 49.6215 cycles
L1I TOTAL     ACCESS:   10773000  HIT:    9762562  MISS:    1010438
L1I LOAD      ACCESS:    9528112  HIT:    9431671  MISS:      96441
L1I RFO       ACCESS:          0  HIT:          0  MISS:          0
L1I PREFETCH  ACCESS:    1244888  HIT:     330891  MISS:     913997
L1I WRITEBACK ACCESS:          0  HIT:          0  MISS:          0
L1I PREFETCH  REQUESTED:    1413252  ISSUED:    1413252  USEFUL:     593231  USELESS:     320705
L1I AVERAGE MISS LATENCY: 16.7865 cycles
L2C TOTAL     ACCESS:    1817969  HIT:    1574730  MISS:     243239
L2C LOAD      ACCESS:     151054  HIT:     104085  MISS:      46969
L2C RFO       ACCESS:      88830  HIT:      23094  MISS:      65736
L2C PREFETCH  ACCESS:    1452582  HIT:    1322558  MISS:     130024
L2C WRITEBACK ACCESS:     125503  HIT:     124993  MISS:        510
L2C PREFETCH  REQUESTED:     783938  ISSUED:     783692  USEFUL:       9155  USELESS:     120135
L2C AVERAGE MISS LATENCY: 64.1479 cycles
LLC TOTAL     ACCESS:     523279  HIT:     461387  MISS:      61892
LLC LOAD      ACCESS:      46968  HIT:      40887  MISS:       6081
LLC RFO       ACCESS:      65734  HIT:      35838  MISS:      29896
LLC PREFETCH  ACCESS:     326231  HIT:     300574  MISS:      25657
LLC WRITEBACK ACCESS:      84346  HIT:      84088  MISS:        258
LLC PREFETCH  REQUESTED:          0  ISSUED:          0  USEFUL:       5290  USELESS:      19288
LLC AVERAGE MISS LATENCY: 177.987 cycles
Major fault: 0 Minor fault: 3091
CPU 0 L1D next line prefetcher final stats

DRAM Statistics
 CHANNEL 0
 RQ ROW_BUFFER_HIT:      22115  ROW_BUFFER_MISS:      39518
 DBUS_CONGESTED:      43185
 WQ ROW_BUFFER_HIT:       9114  ROW_BUFFER_MISS:      27990  FULL:          0

 AVG_CONGESTED_CYCLE: 6

CPU 0 Branch Prediction Accuracy: 99.2117% MPKI: 1.49752 Average ROB Occupancy at Mispredict: 115.171

Branch types
NOT_BRANCH: 40501616 81.0032%
BRANCH_DIRECT_JUMP: 517397 1.03479%
BRANCH_INDIRECT: 112348 0.224696%
BRANCH_CONDITIONAL: 6698737 13.3975%
BRANCH_DIRECT_CALL: 960974 1.92195%
BRANCH_INDIRECT_CALL: 123707 0.247414%
BRANCH_RETURN: 1084929 2.16986%
BRANCH_OTHER: 0 0%

