Initialize SIGNATURE TABLE
ST_SET: 1
ST_WAY: 256
ST_TAG_BIT: 16
ST_TAG_MASK: ffff

Initialize PATTERN TABLE
PT_SET: 512
PT_WAY: 4
SIG_DELTA_BIT: 7
C_SIG_BIT: 4
C_DELTA_BIT: 4

Initialize PREFETCH FILTER
FILTER_SET: 1024

*** ChampSim Multicore Out-of-Order Simulator ***

Warmup Instructions: 50000000
Simulation Instructions: 50000000
Number of CPUs: 1
LLC sets: 2048
LLC ways: 16
Off-chip DRAM Size: 4096 MB Channels: 1 Width: 64-bit Data Rate: 3200 MT/s

CPU 0 runs /Users/gandhardeshpande/Desktop/CSE240C/HW1/ChampSim/ipc1_public/client_003.champsimtrace.xz
L1I Barca has been initializedCPU 0 L1D next line prefetcher
Heartbeat CPU 0 instructions: 10000000 cycles: 3478404 heartbeat IPC: 2.87488 cumulative IPC: 2.87488 (Simulation time: 0 hr 0 min 22 sec) 
Heartbeat CPU 0 instructions: 20000002 cycles: 6933013 heartbeat IPC: 2.89468 cumulative IPC: 2.88475 (Simulation time: 0 hr 0 min 44 sec) 
Heartbeat CPU 0 instructions: 30000003 cycles: 10494157 heartbeat IPC: 2.80809 cumulative IPC: 2.85873 (Simulation time: 0 hr 1 min 7 sec) 
Heartbeat CPU 0 instructions: 40000001 cycles: 14110628 heartbeat IPC: 2.76513 cumulative IPC: 2.83474 (Simulation time: 0 hr 1 min 30 sec) 
Heartbeat CPU 0 instructions: 50000003 cycles: 17655885 heartbeat IPC: 2.82067 cumulative IPC: 2.83192 (Simulation time: 0 hr 1 min 51 sec) 

Warmup complete CPU 0 instructions: 50000003 cycles: 17655885 (Simulation time: 0 hr 1 min 51 sec) 

Heartbeat CPU 0 instructions: 60000002 cycles: 23891323 heartbeat IPC: 1.60374 cumulative IPC: 1.60374 (Simulation time: 0 hr 2 min 13 sec) 
Heartbeat CPU 0 instructions: 70000001 cycles: 29935741 heartbeat IPC: 1.65442 cumulative IPC: 1.62868 (Simulation time: 0 hr 2 min 35 sec) 
Heartbeat CPU 0 instructions: 80000001 cycles: 36799717 heartbeat IPC: 1.45688 cumulative IPC: 1.56708 (Simulation time: 0 hr 2 min 56 sec) 
Heartbeat CPU 0 instructions: 90000000 cycles: 45782720 heartbeat IPC: 1.11321 cumulative IPC: 1.42213 (Simulation time: 0 hr 3 min 8 sec) 
Heartbeat CPU 0 instructions: 100000003 cycles: 56594915 heartbeat IPC: 0.924882 cumulative IPC: 1.28406 (Simulation time: 0 hr 3 min 22 sec) 
Finished CPU 0 instructions: 50000000 cycles: 38939030 cumulative IPC: 1.28406 (Simulation time: 0 hr 3 min 22 sec) 

ChampSim completed all CPUs

Region of Interest Statistics

CPU 0 cumulative IPC: 1.28406 instructions: 50000000 cycles: 38939030
L1D TOTAL     ACCESS:   17633224  HIT:   17137239  MISS:     495985
L1D LOAD      ACCESS:    6035880  HIT:    5910265  MISS:     125615
L1D RFO       ACCESS:    5944856  HIT:    5710406  MISS:     234450
L1D PREFETCH  ACCESS:    5652488  HIT:    5516568  MISS:     135920
L1D WRITEBACK ACCESS:          0  HIT:          0  MISS:          0
L1D PREFETCH  REQUESTED:    6077465  ISSUED:    5936769  USEFUL:      68014  USELESS:      67954
L1D AVERAGE MISS LATENCY: 121.302 cycles
L1I TOTAL     ACCESS:   10826306  HIT:    9710565  MISS:    1115741
L1I LOAD      ACCESS:    9453566  HIT:    9356777  MISS:      96789
L1I RFO       ACCESS:          0  HIT:          0  MISS:          0
L1I PREFETCH  ACCESS:    1372740  HIT:     353788  MISS:    1018952
L1I WRITEBACK ACCESS:          0  HIT:          0  MISS:          0
L1I PREFETCH  REQUESTED:    1551455  ISSUED:    1551455  USEFUL:     544863  USELESS:     474123
L1I AVERAGE MISS LATENCY: 17.7181 cycles
L2C TOTAL     ACCESS:    2286931  HIT:    1893928  MISS:     393003
L2C LOAD      ACCESS:     139289  HIT:      95178  MISS:      44111
L2C RFO       ACCESS:     232353  HIT:      25954  MISS:     206399
L2C PREFETCH  ACCESS:    1646001  HIT:    1504729  MISS:     141272
L2C WRITEBACK ACCESS:     269288  HIT:     268067  MISS:       1221
L2C PREFETCH  REQUESTED:    1085749  ISSUED:    1085575  USEFUL:       8510  USELESS:     133227
L2C AVERAGE MISS LATENCY: 165.673 cycles
LLC TOTAL     ACCESS:     945816  HIT:     662686  MISS:     283130
LLC LOAD      ACCESS:      43994  HIT:      29806  MISS:      14188
LLC RFO       ACCESS:     206389  HIT:      35133  MISS:     171256
LLC PREFETCH  ACCESS:     471184  HIT:     373868  MISS:      97316
LLC WRITEBACK ACCESS:     224249  HIT:     223879  MISS:        370
LLC PREFETCH  REQUESTED:          0  ISSUED:          0  USEFUL:       9624  USELESS:      88083
LLC AVERAGE MISS LATENCY: 228.043 cycles
Major fault: 0 Minor fault: 5042
CPU 0 L1D next line prefetcher final stats

DRAM Statistics
 CHANNEL 0
 RQ ROW_BUFFER_HIT:     100262  ROW_BUFFER_MISS:     182493
 DBUS_CONGESTED:     253821
 WQ ROW_BUFFER_HIT:      60520  ROW_BUFFER_MISS:     117192  FULL:          0

 AVG_CONGESTED_CYCLE: 6

CPU 0 Branch Prediction Accuracy: 98.6631% MPKI: 2.66884 Average ROB Occupancy at Mispredict: 78.9731

Branch types
NOT_BRANCH: 40018780 80.0376%
BRANCH_DIRECT_JUMP: 370861 0.741722%
BRANCH_INDIRECT: 83253 0.166506%
BRANCH_CONDITIONAL: 7877436 15.7549%
BRANCH_DIRECT_CALL: 722316 1.44463%
BRANCH_INDIRECT_CALL: 101901 0.203802%
BRANCH_RETURN: 825355 1.65071%
BRANCH_OTHER: 0 0%

