Initialize SIGNATURE TABLE
ST_SET: 1
ST_WAY: 256
ST_TAG_BIT: 16
ST_TAG_MASK: ffff

Initialize PATTERN TABLE
PT_SET: 512
PT_WAY: 4
SIG_DELTA_BIT: 7
C_SIG_BIT: 4
C_DELTA_BIT: 4

Initialize PREFETCH FILTER
FILTER_SET: 1024

*** ChampSim Multicore Out-of-Order Simulator ***

Warmup Instructions: 50000000
Simulation Instructions: 50000000
Number of CPUs: 1
LLC sets: 2048
LLC ways: 16
Off-chip DRAM Size: 4096 MB Channels: 1 Width: 64-bit Data Rate: 3200 MT/s

CPU 0 runs /Users/gandhardeshpande/Desktop/CSE240C/HW1/ChampSim/ipc1_public/client_004.champsimtrace.xz
L1I Barca has been initializedCPU 0 L1D next line prefetcher
Heartbeat CPU 0 instructions: 10000000 cycles: 3592737 heartbeat IPC: 2.78339 cumulative IPC: 2.78339 (Simulation time: 0 hr 0 min 25 sec) 
Heartbeat CPU 0 instructions: 20000003 cycles: 7057326 heartbeat IPC: 2.88635 cumulative IPC: 2.83394 (Simulation time: 0 hr 0 min 44 sec) 
Heartbeat CPU 0 instructions: 30000000 cycles: 10648140 heartbeat IPC: 2.78488 cumulative IPC: 2.81739 (Simulation time: 0 hr 1 min 4 sec) 
Heartbeat CPU 0 instructions: 40000003 cycles: 14329645 heartbeat IPC: 2.71628 cumulative IPC: 2.79142 (Simulation time: 0 hr 1 min 27 sec) 
Heartbeat CPU 0 instructions: 50000001 cycles: 17848157 heartbeat IPC: 2.84211 cumulative IPC: 2.80141 (Simulation time: 0 hr 1 min 50 sec) 

Warmup complete CPU 0 instructions: 50000001 cycles: 17848157 (Simulation time: 0 hr 1 min 50 sec) 

Heartbeat CPU 0 instructions: 60000002 cycles: 25881938 heartbeat IPC: 1.24474 cumulative IPC: 1.24474 (Simulation time: 0 hr 2 min 7 sec) 
Heartbeat CPU 0 instructions: 70000001 cycles: 34002762 heartbeat IPC: 1.2314 cumulative IPC: 1.23804 (Simulation time: 0 hr 2 min 34 sec) 
Heartbeat CPU 0 instructions: 80000002 cycles: 42950152 heartbeat IPC: 1.11764 cumulative IPC: 1.19512 (Simulation time: 0 hr 2 min 53 sec) 
Heartbeat CPU 0 instructions: 90000000 cycles: 51327261 heartbeat IPC: 1.19373 cumulative IPC: 1.19478 (Simulation time: 0 hr 3 min 13 sec) 
Heartbeat CPU 0 instructions: 100000001 cycles: 59405661 heartbeat IPC: 1.23787 cumulative IPC: 1.20315 (Simulation time: 0 hr 3 min 34 sec) 
Finished CPU 0 instructions: 50000000 cycles: 41557504 cumulative IPC: 1.20315 (Simulation time: 0 hr 3 min 34 sec) 

ChampSim completed all CPUs

Region of Interest Statistics

CPU 0 cumulative IPC: 1.20315 instructions: 50000000 cycles: 41557504
L1D TOTAL     ACCESS:   21981885  HIT:   21092899  MISS:     888986
L1D LOAD      ACCESS:    8730840  HIT:    8335007  MISS:     395833
L1D RFO       ACCESS:    4813961  HIT:    4692607  MISS:     121354
L1D PREFETCH  ACCESS:    8437084  HIT:    8065285  MISS:     371799
L1D WRITEBACK ACCESS:          0  HIT:          0  MISS:          0
L1D PREFETCH  REQUESTED:    8770285  ISSUED:    8610570  USEFUL:     133261  USELESS:     238546
L1D AVERAGE MISS LATENCY: 29.5787 cycles
L1I TOTAL     ACCESS:   10853305  HIT:    9577643  MISS:    1275662
L1I LOAD      ACCESS:    9398840  HIT:    9232413  MISS:     166427
L1I RFO       ACCESS:          0  HIT:          0  MISS:          0
L1I PREFETCH  ACCESS:    1454465  HIT:     345230  MISS:    1109235
L1I WRITEBACK ACCESS:          0  HIT:          0  MISS:          0
L1I PREFETCH  REQUESTED:    1610745  ISSUED:    1610745  USEFUL:     537634  USELESS:     571595
L1I AVERAGE MISS LATENCY: 20.2436 cycles
L2C TOTAL     ACCESS:    3091744  HIT:    2813802  MISS:     277942
L2C LOAD      ACCESS:     502908  HIT:     410466  MISS:      92442
L2C RFO       ACCESS:     117306  HIT:      46205  MISS:      71101
L2C PREFETCH  ACCESS:    2249502  HIT:    2135682  MISS:     113820
L2C WRITEBACK ACCESS:     222028  HIT:     221449  MISS:        579
L2C PREFETCH  REQUESTED:    1472555  ISSUED:    1472320  USEFUL:      19765  USELESS:      93244
L2C AVERAGE MISS LATENCY: 81.0985 cycles
LLC TOTAL     ACCESS:     675573  HIT:     552732  MISS:     122841
LLC LOAD      ACCESS:      92422  HIT:      65143  MISS:      27279
LLC RFO       ACCESS:      71101  HIT:      40809  MISS:      30292
LLC PREFETCH  ACCESS:     412187  HIT:     347121  MISS:      65066
LLC WRITEBACK ACCESS:      99863  HIT:      99659  MISS:        204
LLC PREFETCH  REQUESTED:          0  ISSUED:          0  USEFUL:      21043  USELESS:      45118
LLC AVERAGE MISS LATENCY: 174.224 cycles
Major fault: 0 Minor fault: 3976
CPU 0 L1D next line prefetcher final stats

DRAM Statistics
 CHANNEL 0
 RQ ROW_BUFFER_HIT:      30977  ROW_BUFFER_MISS:      91650
 DBUS_CONGESTED:      52288
 WQ ROW_BUFFER_HIT:       9346  ROW_BUFFER_MISS:      32348  FULL:          0

 AVG_CONGESTED_CYCLE: 5

CPU 0 Branch Prediction Accuracy: 94.1242% MPKI: 11.6089 Average ROB Occupancy at Mispredict: 54.7086

Branch types
NOT_BRANCH: 40121072 80.2421%
BRANCH_DIRECT_JUMP: 644555 1.28911%
BRANCH_INDIRECT: 201946 0.403892%
BRANCH_CONDITIONAL: 7003556 14.0071%
BRANCH_DIRECT_CALL: 564821 1.12964%
BRANCH_INDIRECT_CALL: 445012 0.890024%
BRANCH_RETURN: 1018716 2.03743%
BRANCH_OTHER: 0 0%

