Initialize SIGNATURE TABLE
ST_SET: 1
ST_WAY: 256
ST_TAG_BIT: 16
ST_TAG_MASK: ffff

Initialize PATTERN TABLE
PT_SET: 512
PT_WAY: 4
SIG_DELTA_BIT: 7
C_SIG_BIT: 4
C_DELTA_BIT: 4

Initialize PREFETCH FILTER
FILTER_SET: 1024

*** ChampSim Multicore Out-of-Order Simulator ***

Warmup Instructions: 50000000
Simulation Instructions: 50000000
Number of CPUs: 1
LLC sets: 2048
LLC ways: 16
Off-chip DRAM Size: 4096 MB Channels: 1 Width: 64-bit Data Rate: 3200 MT/s

CPU 0 runs /Users/gandhardeshpande/Desktop/CSE240C/HW1/ChampSim/ipc1_public/server_010.champsimtrace.xz
L1I Barca has been initializedCPU 0 L1D next line prefetcher
Heartbeat CPU 0 instructions: 10000000 cycles: 3198165 heartbeat IPC: 3.12679 cumulative IPC: 3.12679 (Simulation time: 0 hr 0 min 18 sec) 
Heartbeat CPU 0 instructions: 20000002 cycles: 6392544 heartbeat IPC: 3.1305 cumulative IPC: 3.12865 (Simulation time: 0 hr 0 min 37 sec) 
Heartbeat CPU 0 instructions: 30000001 cycles: 9589639 heartbeat IPC: 3.12784 cumulative IPC: 3.12838 (Simulation time: 0 hr 0 min 55 sec) 
Heartbeat CPU 0 instructions: 40000000 cycles: 12782547 heartbeat IPC: 3.13194 cumulative IPC: 3.12927 (Simulation time: 0 hr 1 min 13 sec) 
Heartbeat CPU 0 instructions: 50000003 cycles: 15981244 heartbeat IPC: 3.12627 cumulative IPC: 3.12867 (Simulation time: 0 hr 1 min 32 sec) 

Warmup complete CPU 0 instructions: 50000003 cycles: 15981244 (Simulation time: 0 hr 1 min 32 sec) 

Heartbeat CPU 0 instructions: 60000001 cycles: 23138501 heartbeat IPC: 1.39718 cumulative IPC: 1.39718 (Simulation time: 0 hr 1 min 49 sec) 
Heartbeat CPU 0 instructions: 70000000 cycles: 30322686 heartbeat IPC: 1.39195 cumulative IPC: 1.39456 (Simulation time: 0 hr 2 min 7 sec) 
Heartbeat CPU 0 instructions: 80000003 cycles: 37592056 heartbeat IPC: 1.37564 cumulative IPC: 1.38819 (Simulation time: 0 hr 2 min 24 sec) 
Heartbeat CPU 0 instructions: 90000002 cycles: 44612515 heartbeat IPC: 1.42441 cumulative IPC: 1.39707 (Simulation time: 0 hr 2 min 41 sec) 
Heartbeat CPU 0 instructions: 100000003 cycles: 65219616 heartbeat IPC: 0.48527 cumulative IPC: 1.01547 (Simulation time: 0 hr 3 min 7 sec) 
Finished CPU 0 instructions: 50000000 cycles: 49238372 cumulative IPC: 1.01547 (Simulation time: 0 hr 3 min 7 sec) 

ChampSim completed all CPUs

Region of Interest Statistics

CPU 0 cumulative IPC: 1.01547 instructions: 50000000 cycles: 49238372
L1D TOTAL     ACCESS:   19919556  HIT:   16694346  MISS:    3225210
L1D LOAD      ACCESS:    7714410  HIT:    6121254  MISS:    1593156
L1D RFO       ACCESS:    4713403  HIT:    4619085  MISS:      94318
L1D PREFETCH  ACCESS:    7491743  HIT:    5954007  MISS:    1537736
L1D WRITEBACK ACCESS:          0  HIT:          0  MISS:          0
L1D PREFETCH  REQUESTED:    7747694  ISSUED:    7650620  USEFUL:     117138  USELESS:    1420568
L1D AVERAGE MISS LATENCY: 22.428 cycles
L1I TOTAL     ACCESS:   11640872  HIT:   10067215  MISS:    1573657
L1I LOAD      ACCESS:    9926466  HIT:    9759718  MISS:     166748
L1I RFO       ACCESS:          0  HIT:          0  MISS:          0
L1I PREFETCH  ACCESS:    1714406  HIT:     307497  MISS:    1406909
L1I WRITEBACK ACCESS:          0  HIT:          0  MISS:          0
L1I PREFETCH  REQUESTED:    1990464  ISSUED:    1990464  USEFUL:    1049457  USELESS:     357344
L1I AVERAGE MISS LATENCY: 28.5174 cycles
L2C TOTAL     ACCESS:    6147481  HIT:    5073618  MISS:    1073863
L2C LOAD      ACCESS:    1633800  HIT:    1396955  MISS:     236845
L2C RFO       ACCESS:      93323  HIT:      49076  MISS:      44247
L2C PREFETCH  ACCESS:    4154980  HIT:    3363564  MISS:     791416
L2C WRITEBACK ACCESS:     265378  HIT:     264023  MISS:       1355
L2C PREFETCH  REQUESTED:    4950992  ISSUED:    4948269  USEFUL:      23128  USELESS:     769306
L2C AVERAGE MISS LATENCY: 45.022 cycles
LLC TOTAL     ACCESS:    2204286  HIT:    2086123  MISS:     118163
LLC LOAD      ACCESS:     236770  HIT:     221268  MISS:      15502
LLC RFO       ACCESS:      44245  HIT:      35551  MISS:       8694
LLC PREFETCH  ACCESS:    1776610  HIT:    1682825  MISS:      93785
LLC WRITEBACK ACCESS:     146661  HIT:     146479  MISS:        182
LLC PREFETCH  REQUESTED:          0  ISSUED:          0  USEFUL:       8455  USELESS:      85796
LLC AVERAGE MISS LATENCY: 174.919 cycles
Major fault: 0 Minor fault: 5593
CPU 0 L1D next line prefetcher final stats

DRAM Statistics
 CHANNEL 0
 RQ ROW_BUFFER_HIT:      18560  ROW_BUFFER_MISS:      99412
 DBUS_CONGESTED:      53711
 WQ ROW_BUFFER_HIT:       9759  ROW_BUFFER_MISS:      42718  FULL:          0

 AVG_CONGESTED_CYCLE: 5

CPU 0 Branch Prediction Accuracy: 99.5528% MPKI: 0.89798 Average ROB Occupancy at Mispredict: 125.178

Branch types
NOT_BRANCH: 39958794 79.9176%
BRANCH_DIRECT_JUMP: 449946 0.899892%
BRANCH_INDIRECT: 140210 0.28042%
BRANCH_CONDITIONAL: 7679677 15.3594%
BRANCH_DIRECT_CALL: 701578 1.40316%
BRANCH_INDIRECT_CALL: 168971 0.337942%
BRANCH_RETURN: 900560 1.80112%
BRANCH_OTHER: 0 0%

