Initialize SIGNATURE TABLE
ST_SET: 1
ST_WAY: 256
ST_TAG_BIT: 16
ST_TAG_MASK: ffff

Initialize PATTERN TABLE
PT_SET: 512
PT_WAY: 4
SIG_DELTA_BIT: 7
C_SIG_BIT: 4
C_DELTA_BIT: 4

Initialize PREFETCH FILTER
FILTER_SET: 1024

*** ChampSim Multicore Out-of-Order Simulator ***

Warmup Instructions: 50000000
Simulation Instructions: 50000000
Number of CPUs: 1
LLC sets: 2048
LLC ways: 16
Off-chip DRAM Size: 4096 MB Channels: 1 Width: 64-bit Data Rate: 3200 MT/s

CPU 0 runs /Users/gandhardeshpande/Desktop/CSE240C/HW1/ChampSim/ipc1_public/server_025.champsimtrace.xz
L1I Barca has been initializedCPU 0 L1D next line prefetcher
Heartbeat CPU 0 instructions: 10000003 cycles: 3529065 heartbeat IPC: 2.83361 cumulative IPC: 2.83361 (Simulation time: 0 hr 0 min 21 sec) 
Heartbeat CPU 0 instructions: 20000000 cycles: 7065671 heartbeat IPC: 2.82757 cumulative IPC: 2.83059 (Simulation time: 0 hr 0 min 42 sec) 
Heartbeat CPU 0 instructions: 30000001 cycles: 10593499 heartbeat IPC: 2.83461 cumulative IPC: 2.83193 (Simulation time: 0 hr 1 min 2 sec) 
Heartbeat CPU 0 instructions: 40000003 cycles: 14127737 heartbeat IPC: 2.82946 cumulative IPC: 2.83131 (Simulation time: 0 hr 1 min 23 sec) 
Heartbeat CPU 0 instructions: 50000001 cycles: 17660025 heartbeat IPC: 2.83103 cumulative IPC: 2.83125 (Simulation time: 0 hr 1 min 44 sec) 

Warmup complete CPU 0 instructions: 50000001 cycles: 17660025 (Simulation time: 0 hr 1 min 44 sec) 

Heartbeat CPU 0 instructions: 60000002 cycles: 24568579 heartbeat IPC: 1.44748 cumulative IPC: 1.44748 (Simulation time: 0 hr 2 min 5 sec) 
Heartbeat CPU 0 instructions: 70000000 cycles: 31583258 heartbeat IPC: 1.42558 cumulative IPC: 1.43645 (Simulation time: 0 hr 2 min 26 sec) 
Heartbeat CPU 0 instructions: 80000002 cycles: 38518437 heartbeat IPC: 1.44192 cumulative IPC: 1.43827 (Simulation time: 0 hr 2 min 48 sec) 
Heartbeat CPU 0 instructions: 90000001 cycles: 45084569 heartbeat IPC: 1.52297 cumulative IPC: 1.45855 (Simulation time: 0 hr 3 min 10 sec) 
Heartbeat CPU 0 instructions: 100000003 cycles: 51346421 heartbeat IPC: 1.59697 cumulative IPC: 1.48428 (Simulation time: 0 hr 3 min 32 sec) 
Finished CPU 0 instructions: 50000002 cycles: 33686396 cumulative IPC: 1.48428 (Simulation time: 0 hr 3 min 32 sec) 

ChampSim completed all CPUs

Region of Interest Statistics

CPU 0 cumulative IPC: 1.48428 instructions: 50000002 cycles: 33686396
L1D TOTAL     ACCESS:   20048076  HIT:   18622593  MISS:    1425483
L1D LOAD      ACCESS:    6988748  HIT:    6369729  MISS:     619019
L1D RFO       ACCESS:    6381640  HIT:    6133695  MISS:     247945
L1D PREFETCH  ACCESS:    6677688  HIT:    6119169  MISS:     558519
L1D WRITEBACK ACCESS:          0  HIT:          0  MISS:          0
L1D PREFETCH  REQUESTED:    7029886  ISSUED:    6856886  USEFUL:     131175  USELESS:     427338
L1D AVERAGE MISS LATENCY: 23.3565 cycles
L1I TOTAL     ACCESS:   13100949  HIT:    9837379  MISS:    3263570
L1I LOAD      ACCESS:    9424837  HIT:    9140706  MISS:     284131
L1I RFO       ACCESS:          0  HIT:          0  MISS:          0
L1I PREFETCH  ACCESS:    3676112  HIT:     696673  MISS:    2979439
L1I WRITEBACK ACCESS:          0  HIT:          0  MISS:          0
L1I PREFETCH  REQUESTED:    4213200  ISSUED:    4213200  USEFUL:    2231990  USELESS:     747486
L1I AVERAGE MISS LATENCY: 16.9677 cycles
L2C TOTAL     ACCESS:    6334115  HIT:    5638444  MISS:     695671
L2C LOAD      ACCESS:     694295  HIT:     562690  MISS:     131605
L2C RFO       ACCESS:     246514  HIT:     174096  MISS:      72418
L2C PREFETCH  ACCESS:    4896579  HIT:    4410927  MISS:     485652
L2C WRITEBACK ACCESS:     496727  HIT:     490731  MISS:       5996
L2C PREFETCH  REQUESTED:    3344789  ISSUED:    3341992  USEFUL:      13054  USELESS:     472162
L2C AVERAGE MISS LATENCY: 36.5622 cycles
LLC TOTAL     ACCESS:    1770558  HIT:    1742047  MISS:      28511
LLC LOAD      ACCESS:     131467  HIT:     128250  MISS:       3217
LLC RFO       ACCESS:      72415  HIT:      61640  MISS:      10775
LLC PREFETCH  ACCESS:    1439009  HIT:    1424697  MISS:      14312
LLC WRITEBACK ACCESS:     127667  HIT:     127460  MISS:        207
LLC PREFETCH  REQUESTED:          0  ISSUED:          0  USEFUL:       1057  USELESS:      12773
LLC AVERAGE MISS LATENCY: 177.269 cycles
Major fault: 0 Minor fault: 2457
CPU 0 L1D next line prefetcher final stats

DRAM Statistics
 CHANNEL 0
 RQ ROW_BUFFER_HIT:       9164  ROW_BUFFER_MISS:      19132
 DBUS_CONGESTED:      17727
 WQ ROW_BUFFER_HIT:       1274  ROW_BUFFER_MISS:      11400  FULL:          0

 AVG_CONGESTED_CYCLE: 6

CPU 0 Branch Prediction Accuracy: 99.8142% MPKI: 0.34676 Average ROB Occupancy at Mispredict: 191.06

Branch types
NOT_BRANCH: 40668928 81.3379%
BRANCH_DIRECT_JUMP: 531701 1.0634%
BRANCH_INDIRECT: 199025 0.39805%
BRANCH_CONDITIONAL: 6211501 12.423%
BRANCH_DIRECT_CALL: 1010912 2.02182%
BRANCH_INDIRECT_CALL: 183501 0.367002%
BRANCH_RETURN: 1194416 2.38883%
BRANCH_OTHER: 0 0%

