Initialize SIGNATURE TABLE
ST_SET: 1
ST_WAY: 256
ST_TAG_BIT: 16
ST_TAG_MASK: ffff

Initialize PATTERN TABLE
PT_SET: 512
PT_WAY: 4
SIG_DELTA_BIT: 7
C_SIG_BIT: 4
C_DELTA_BIT: 4

Initialize PREFETCH FILTER
FILTER_SET: 1024

*** ChampSim Multicore Out-of-Order Simulator ***

Warmup Instructions: 50000000
Simulation Instructions: 50000000
Number of CPUs: 1
LLC sets: 2048
LLC ways: 16
Off-chip DRAM Size: 4096 MB Channels: 1 Width: 64-bit Data Rate: 3200 MT/s

CPU 0 runs /Users/gandhardeshpande/Desktop/CSE240C/HW1/ChampSim/ipc1_public/spec_x264_001.champsimtrace.xz
L1I Barca has been initializedCPU 0 L1D next line prefetcher
Heartbeat CPU 0 instructions: 10000002 cycles: 3060590 heartbeat IPC: 3.26734 cumulative IPC: 3.26734 (Simulation time: 0 hr 0 min 11 sec) 
Heartbeat CPU 0 instructions: 20000002 cycles: 6111586 heartbeat IPC: 3.27762 cumulative IPC: 3.27247 (Simulation time: 0 hr 0 min 21 sec) 
Heartbeat CPU 0 instructions: 30000002 cycles: 9147904 heartbeat IPC: 3.29346 cumulative IPC: 3.27944 (Simulation time: 0 hr 0 min 32 sec) 
Heartbeat CPU 0 instructions: 40000000 cycles: 12193208 heartbeat IPC: 3.28374 cumulative IPC: 3.28051 (Simulation time: 0 hr 0 min 43 sec) 
Heartbeat CPU 0 instructions: 50000000 cycles: 15237004 heartbeat IPC: 3.28537 cumulative IPC: 3.28149 (Simulation time: 0 hr 0 min 54 sec) 

Warmup complete CPU 0 instructions: 50000004 cycles: 15237005 (Simulation time: 0 hr 0 min 54 sec) 

Heartbeat CPU 0 instructions: 60000002 cycles: 21168571 heartbeat IPC: 1.6859 cumulative IPC: 1.6859 (Simulation time: 0 hr 1 min 0 sec) 
Heartbeat CPU 0 instructions: 70000000 cycles: 27078411 heartbeat IPC: 1.69209 cumulative IPC: 1.68899 (Simulation time: 0 hr 1 min 6 sec) 
Heartbeat CPU 0 instructions: 80000003 cycles: 33135029 heartbeat IPC: 1.65109 cumulative IPC: 1.67616 (Simulation time: 0 hr 1 min 12 sec) 
Heartbeat CPU 0 instructions: 90000002 cycles: 39172705 heartbeat IPC: 1.65627 cumulative IPC: 1.67114 (Simulation time: 0 hr 1 min 18 sec) 
Heartbeat CPU 0 instructions: 100000002 cycles: 45069801 heartbeat IPC: 1.69575 cumulative IPC: 1.67601 (Simulation time: 0 hr 1 min 24 sec) 
Finished CPU 0 instructions: 50000002 cycles: 29832797 cumulative IPC: 1.67601 (Simulation time: 0 hr 1 min 24 sec) 

ChampSim completed all CPUs

Region of Interest Statistics

CPU 0 cumulative IPC: 1.67601 instructions: 50000002 cycles: 29832797
L1D TOTAL     ACCESS:   12959612  HIT:   12798589  MISS:     161023
L1D LOAD      ACCESS:    5092749  HIT:    5037529  MISS:      55220
L1D RFO       ACCESS:    2882939  HIT:    2848715  MISS:      34224
L1D PREFETCH  ACCESS:    4983924  HIT:    4912345  MISS:      71579
L1D WRITEBACK ACCESS:          0  HIT:          0  MISS:          0
L1D PREFETCH  REQUESTED:    5109578  ISSUED:    5041782  USEFUL:      25736  USELESS:      45652
L1D AVERAGE MISS LATENCY: 40.8396 cycles
L1I TOTAL     ACCESS:    8440572  HIT:    8094651  MISS:     345921
L1I LOAD      ACCESS:    8030093  HIT:    8015814  MISS:      14279
L1I RFO       ACCESS:          0  HIT:          0  MISS:          0
L1I PREFETCH  ACCESS:     410479  HIT:      78837  MISS:     331642
L1I WRITEBACK ACCESS:          0  HIT:          0  MISS:          0
L1I PREFETCH  REQUESTED:     459337  ISSUED:     459337  USEFUL:     277597  USELESS:      54075
L1I AVERAGE MISS LATENCY: 14.2499 cycles
L2C TOTAL     ACCESS:     731260  HIT:     692090  MISS:      39170
L2C LOAD      ACCESS:      58646  HIT:      53226  MISS:       5420
L2C RFO       ACCESS:      33962  HIT:      21908  MISS:      12054
L2C PREFETCH  ACCESS:     595587  HIT:     573961  MISS:      21626
L2C WRITEBACK ACCESS:      43065  HIT:      42995  MISS:         70
L2C PREFETCH  REQUESTED:     437602  ISSUED:     437219  USEFUL:       8939  USELESS:      12937
L2C AVERAGE MISS LATENCY: 107.075 cycles
LLC TOTAL     ACCESS:     120392  HIT:      91062  MISS:      29330
LLC LOAD      ACCESS:       5420  HIT:       3212  MISS:       2208
LLC RFO       ACCESS:      12054  HIT:        431  MISS:      11623
LLC PREFETCH  ACCESS:      89387  HIT:      73986  MISS:      15401
LLC WRITEBACK ACCESS:      13531  HIT:      13433  MISS:         98
LLC PREFETCH  REQUESTED:          0  ISSUED:          0  USEFUL:       1658  USELESS:      14220
LLC AVERAGE MISS LATENCY: 161.626 cycles
Major fault: 0 Minor fault: 1284
CPU 0 L1D next line prefetcher final stats

DRAM Statistics
 CHANNEL 0
 RQ ROW_BUFFER_HIT:       9907  ROW_BUFFER_MISS:      19325
 DBUS_CONGESTED:      12309
 WQ ROW_BUFFER_HIT:       2934  ROW_BUFFER_MISS:       9846  FULL:          0

 AVG_CONGESTED_CYCLE: 6

CPU 0 Branch Prediction Accuracy: 97.1633% MPKI: 1.73704 Average ROB Occupancy at Mispredict: 42.8904

Branch types
NOT_BRANCH: 46937921 93.8758%
BRANCH_DIRECT_JUMP: 170816 0.341632%
BRANCH_INDIRECT: 0 0%
BRANCH_CONDITIONAL: 2532774 5.06555%
BRANCH_DIRECT_CALL: 114227 0.228454%
BRANCH_INDIRECT_CALL: 64863 0.129726%
BRANCH_RETURN: 179089 0.358178%
BRANCH_OTHER: 0 0%

