
*** ChampSim Multicore Out-of-Order Simulator ***

Warmup Instructions: 10000000
Simulation Instructions: 100000000
Configuration: 2
Number of CPUs: 1
LLC sets: 2048
LLC ways: 16
Off-chip DRAM Channels: 1 Width: 64-bit Data Rate: 1600 MT/s

CPU 0 runs /datasets/cs240c-wi22-a00-public/data/Assignment2-gz/omnetpp_340B.trace.gz
CPU 0 L1D next line prefetcher
CPU 0 L2C IP-based stride prefetcher
Heartbeat CPU 0 instructions: 1000001 cycles: 576928 heartbeat IPC: 1.73332 cumulative IPC: 1.73332 (Simulation time: 0 hr 0 min 46 sec) 
Heartbeat CPU 0 instructions: 2000000 cycles: 1160856 heartbeat IPC: 1.71254 cumulative IPC: 1.72287 (Simulation time: 0 hr 1 min 31 sec) 
Heartbeat CPU 0 instructions: 3000001 cycles: 1758111 heartbeat IPC: 1.67433 cumulative IPC: 1.70638 (Simulation time: 0 hr 2 min 19 sec) 
Heartbeat CPU 0 instructions: 4000000 cycles: 2379099 heartbeat IPC: 1.61034 cumulative IPC: 1.68131 (Simulation time: 0 hr 3 min 7 sec) 
Heartbeat CPU 0 instructions: 5000002 cycles: 2954455 heartbeat IPC: 1.73806 cumulative IPC: 1.69236 (Simulation time: 0 hr 3 min 53 sec) 
Heartbeat CPU 0 instructions: 6000003 cycles: 3555916 heartbeat IPC: 1.66262 cumulative IPC: 1.68733 (Simulation time: 0 hr 4 min 40 sec) 
Heartbeat CPU 0 instructions: 7000003 cycles: 4205395 heartbeat IPC: 1.5397 cumulative IPC: 1.66453 (Simulation time: 0 hr 5 min 24 sec) 
Heartbeat CPU 0 instructions: 8000000 cycles: 4800046 heartbeat IPC: 1.68165 cumulative IPC: 1.66665 (Simulation time: 0 hr 6 min 10 sec) 
Heartbeat CPU 0 instructions: 9000002 cycles: 5433215 heartbeat IPC: 1.57936 cumulative IPC: 1.65648 (Simulation time: 0 hr 6 min 58 sec) 
Heartbeat CPU 0 instructions: 10000002 cycles: 6027858 heartbeat IPC: 1.68168 cumulative IPC: 1.65896 (Simulation time: 0 hr 7 min 40 sec) 

Warmup complete CPU 0 instructions: 10000002 cycles: 6027858 (Simulation time: 0 hr 7 min 40 sec) 

Heartbeat CPU 0 instructions: 11000000 cycles: 9604130 heartbeat IPC: 0.27962 cumulative IPC: 0.27962 (Simulation time: 0 hr 8 min 34 sec) 
Heartbeat CPU 0 instructions: 12000000 cycles: 13147311 heartbeat IPC: 0.282232 cumulative IPC: 0.28092 (Simulation time: 0 hr 9 min 28 sec) 
Heartbeat CPU 0 instructions: 13000000 cycles: 16894180 heartbeat IPC: 0.26689 cumulative IPC: 0.276082 (Simulation time: 0 hr 10 min 27 sec) 
Heartbeat CPU 0 instructions: 14000001 cycles: 20762707 heartbeat IPC: 0.258497 cumulative IPC: 0.271465 (Simulation time: 0 hr 11 min 25 sec) 
Heartbeat CPU 0 instructions: 15000003 cycles: 24782376 heartbeat IPC: 0.248777 cumulative IPC: 0.266602 (Simulation time: 0 hr 12 min 31 sec) 
Heartbeat CPU 0 instructions: 16000000 cycles: 29077843 heartbeat IPC: 0.232803 cumulative IPC: 0.260304 (Simulation time: 0 hr 13 min 32 sec) 
Heartbeat CPU 0 instructions: 17000000 cycles: 32845364 heartbeat IPC: 0.265427 cumulative IPC: 0.261023 (Simulation time: 0 hr 14 min 35 sec) 
Heartbeat CPU 0 instructions: 18000000 cycles: 36734488 heartbeat IPC: 0.257127 cumulative IPC: 0.26053 (Simulation time: 0 hr 15 min 42 sec) 
Heartbeat CPU 0 instructions: 19000000 cycles: 40932838 heartbeat IPC: 0.238189 cumulative IPC: 0.257843 (Simulation time: 0 hr 16 min 52 sec) 
Heartbeat CPU 0 instructions: 20000000 cycles: 45029801 heartbeat IPC: 0.244083 cumulative IPC: 0.256397 (Simulation time: 0 hr 17 min 59 sec) 
Heartbeat CPU 0 instructions: 21000000 cycles: 48548696 heartbeat IPC: 0.28418 cumulative IPC: 0.258697 (Simulation time: 0 hr 19 min 5 sec) 
Heartbeat CPU 0 instructions: 22000001 cycles: 52362111 heartbeat IPC: 0.262232 cumulative IPC: 0.258988 (Simulation time: 0 hr 20 min 19 sec) 
Heartbeat CPU 0 instructions: 23000001 cycles: 56159591 heartbeat IPC: 0.263333 cumulative IPC: 0.259317 (Simulation time: 0 hr 21 min 26 sec) 
Heartbeat CPU 0 instructions: 24000000 cycles: 59962163 heartbeat IPC: 0.26298 cumulative IPC: 0.259575 (Simulation time: 0 hr 22 min 31 sec) 
Heartbeat CPU 0 instructions: 25000000 cycles: 63829478 heartbeat IPC: 0.258577 cumulative IPC: 0.259508 (Simulation time: 0 hr 23 min 38 sec) 
Heartbeat CPU 0 instructions: 26000001 cycles: 67762824 heartbeat IPC: 0.254237 cumulative IPC: 0.259172 (Simulation time: 0 hr 24 min 43 sec) 
Heartbeat CPU 0 instructions: 27000000 cycles: 71846478 heartbeat IPC: 0.244878 cumulative IPC: 0.258286 (Simulation time: 0 hr 25 min 51 sec) 
Heartbeat CPU 0 instructions: 28000000 cycles: 75917983 heartbeat IPC: 0.245609 cumulative IPC: 0.257547 (Simulation time: 0 hr 27 min 7 sec) 
Heartbeat CPU 0 instructions: 29000003 cycles: 80004768 heartbeat IPC: 0.244692 cumulative IPC: 0.256837 (Simulation time: 0 hr 28 min 20 sec) 
Heartbeat CPU 0 instructions: 30000000 cycles: 83644874 heartbeat IPC: 0.274716 cumulative IPC: 0.257675 (Simulation time: 0 hr 29 min 27 sec) 
Heartbeat CPU 0 instructions: 31000000 cycles: 87506587 heartbeat IPC: 0.258952 cumulative IPC: 0.257736 (Simulation time: 0 hr 30 min 37 sec) 
Heartbeat CPU 0 instructions: 32000000 cycles: 91258463 heartbeat IPC: 0.266533 cumulative IPC: 0.258123 (Simulation time: 0 hr 31 min 42 sec) 
Heartbeat CPU 0 instructions: 33000003 cycles: 94994619 heartbeat IPC: 0.267656 cumulative IPC: 0.258524 (Simulation time: 0 hr 32 min 52 sec) 
Heartbeat CPU 0 instructions: 34000001 cycles: 99159474 heartbeat IPC: 0.240104 cumulative IPC: 0.2577 (Simulation time: 0 hr 33 min 58 sec) 
Heartbeat CPU 0 instructions: 35000002 cycles: 102722643 heartbeat IPC: 0.280649 cumulative IPC: 0.258545 (Simulation time: 0 hr 35 min 2 sec) 
Heartbeat CPU 0 instructions: 36000000 cycles: 106987367 heartbeat IPC: 0.234481 cumulative IPC: 0.257529 (Simulation time: 0 hr 36 min 14 sec) 
Heartbeat CPU 0 instructions: 37000000 cycles: 111251243 heartbeat IPC: 0.234528 cumulative IPC: 0.256597 (Simulation time: 0 hr 37 min 25 sec) 
Heartbeat CPU 0 instructions: 38000000 cycles: 115040556 heartbeat IPC: 0.2639 cumulative IPC: 0.256851 (Simulation time: 0 hr 38 min 28 sec) 
Heartbeat CPU 0 instructions: 39000001 cycles: 119185525 heartbeat IPC: 0.241257 cumulative IPC: 0.25628 (Simulation time: 0 hr 39 min 31 sec) 
Heartbeat CPU 0 instructions: 40000000 cycles: 122687993 heartbeat IPC: 0.285513 cumulative IPC: 0.257157 (Simulation time: 0 hr 40 min 31 sec) 
Heartbeat CPU 0 instructions: 41000000 cycles: 126401921 heartbeat IPC: 0.269257 cumulative IPC: 0.257531 (Simulation time: 0 hr 41 min 32 sec) 
Heartbeat CPU 0 instructions: 42000001 cycles: 130608307 heartbeat IPC: 0.237734 cumulative IPC: 0.256862 (Simulation time: 0 hr 42 min 36 sec) 
Heartbeat CPU 0 instructions: 43000001 cycles: 134690910 heartbeat IPC: 0.244942 cumulative IPC: 0.256484 (Simulation time: 0 hr 43 min 37 sec) 
Heartbeat CPU 0 instructions: 44000000 cycles: 138355641 heartbeat IPC: 0.272871 cumulative IPC: 0.256938 (Simulation time: 0 hr 44 min 36 sec) 
Heartbeat CPU 0 instructions: 45000003 cycles: 142260247 heartbeat IPC: 0.256109 cumulative IPC: 0.256914 (Simulation time: 0 hr 45 min 36 sec) 
Heartbeat CPU 0 instructions: 46000003 cycles: 146456721 heartbeat IPC: 0.238295 cumulative IPC: 0.256358 (Simulation time: 0 hr 46 min 36 sec) 
Heartbeat CPU 0 instructions: 47000000 cycles: 149711588 heartbeat IPC: 0.307231 cumulative IPC: 0.25751 (Simulation time: 0 hr 47 min 29 sec) 
Heartbeat CPU 0 instructions: 48000000 cycles: 153734501 heartbeat IPC: 0.248576 cumulative IPC: 0.257267 (Simulation time: 0 hr 48 min 28 sec) 
Heartbeat CPU 0 instructions: 49000000 cycles: 156795938 heartbeat IPC: 0.326644 cumulative IPC: 0.258675 (Simulation time: 0 hr 49 min 23 sec) 
Heartbeat CPU 0 instructions: 50000001 cycles: 160898305 heartbeat IPC: 0.243762 cumulative IPC: 0.25828 (Simulation time: 0 hr 50 min 23 sec) 
Heartbeat CPU 0 instructions: 51000003 cycles: 164620252 heartbeat IPC: 0.268677 cumulative IPC: 0.258524 (Simulation time: 0 hr 51 min 22 sec) 
Heartbeat CPU 0 instructions: 52000000 cycles: 168608344 heartbeat IPC: 0.250746 cumulative IPC: 0.258334 (Simulation time: 0 hr 52 min 26 sec) 
Heartbeat CPU 0 instructions: 53000000 cycles: 173022585 heartbeat IPC: 0.22654 cumulative IPC: 0.257493 (Simulation time: 0 hr 53 min 27 sec) 
Heartbeat CPU 0 instructions: 54000002 cycles: 177061613 heartbeat IPC: 0.247585 cumulative IPC: 0.257259 (Simulation time: 0 hr 54 min 27 sec) 
Heartbeat CPU 0 instructions: 55000001 cycles: 180930367 heartbeat IPC: 0.258481 cumulative IPC: 0.257286 (Simulation time: 0 hr 55 min 32 sec) 
Heartbeat CPU 0 instructions: 56000000 cycles: 185241850 heartbeat IPC: 0.231939 cumulative IPC: 0.256676 (Simulation time: 0 hr 56 min 36 sec) 
Heartbeat CPU 0 instructions: 57000001 cycles: 189335587 heartbeat IPC: 0.244276 cumulative IPC: 0.256399 (Simulation time: 0 hr 57 min 36 sec) 
Heartbeat CPU 0 instructions: 58000000 cycles: 192674588 heartbeat IPC: 0.29949 cumulative IPC: 0.25717 (Simulation time: 0 hr 58 min 31 sec) 
Heartbeat CPU 0 instructions: 59000003 cycles: 196632631 heartbeat IPC: 0.252651 cumulative IPC: 0.257076 (Simulation time: 0 hr 59 min 32 sec) 
Heartbeat CPU 0 instructions: 60000000 cycles: 201118657 heartbeat IPC: 0.222914 cumulative IPC: 0.256291 (Simulation time: 1 hr 0 min 37 sec) 
Heartbeat CPU 0 instructions: 61000001 cycles: 205472282 heartbeat IPC: 0.229694 cumulative IPC: 0.25571 (Simulation time: 1 hr 1 min 34 sec) 
Heartbeat CPU 0 instructions: 62000000 cycles: 209862326 heartbeat IPC: 0.227788 cumulative IPC: 0.255109 (Simulation time: 1 hr 2 min 32 sec) 
Heartbeat CPU 0 instructions: 63000001 cycles: 213584536 heartbeat IPC: 0.268658 cumulative IPC: 0.255352 (Simulation time: 1 hr 3 min 32 sec) 
Heartbeat CPU 0 instructions: 64000000 cycles: 217434279 heartbeat IPC: 0.259757 cumulative IPC: 0.255432 (Simulation time: 1 hr 4 min 27 sec) 
Heartbeat CPU 0 instructions: 65000001 cycles: 220915047 heartbeat IPC: 0.287293 cumulative IPC: 0.255948 (Simulation time: 1 hr 5 min 23 sec) 
Heartbeat CPU 0 instructions: 66000002 cycles: 224830945 heartbeat IPC: 0.25537 cumulative IPC: 0.255938 (Simulation time: 1 hr 6 min 7 sec) 
Heartbeat CPU 0 instructions: 67000002 cycles: 228688787 heartbeat IPC: 0.259212 cumulative IPC: 0.255995 (Simulation time: 1 hr 6 min 57 sec) 
Heartbeat CPU 0 instructions: 68000000 cycles: 232526284 heartbeat IPC: 0.260586 cumulative IPC: 0.256072 (Simulation time: 1 hr 7 min 53 sec) 
Heartbeat CPU 0 instructions: 69000000 cycles: 236445145 heartbeat IPC: 0.255176 cumulative IPC: 0.256057 (Simulation time: 1 hr 8 min 46 sec) 
Heartbeat CPU 0 instructions: 70000001 cycles: 239876914 heartbeat IPC: 0.291395 cumulative IPC: 0.256576 (Simulation time: 1 hr 9 min 34 sec) 
Heartbeat CPU 0 instructions: 71000003 cycles: 243761903 heartbeat IPC: 0.257401 cumulative IPC: 0.256589 (Simulation time: 1 hr 10 min 22 sec) 
Heartbeat CPU 0 instructions: 72000000 cycles: 248234747 heartbeat IPC: 0.223571 cumulative IPC: 0.25598 (Simulation time: 1 hr 11 min 16 sec) 
Heartbeat CPU 0 instructions: 73000002 cycles: 252261268 heartbeat IPC: 0.248354 cumulative IPC: 0.255855 (Simulation time: 1 hr 12 min 1 sec) 
Heartbeat CPU 0 instructions: 74000000 cycles: 256048505 heartbeat IPC: 0.264044 cumulative IPC: 0.255979 (Simulation time: 1 hr 12 min 45 sec) 
Heartbeat CPU 0 instructions: 75000003 cycles: 260100695 heartbeat IPC: 0.246781 cumulative IPC: 0.255832 (Simulation time: 1 hr 13 min 31 sec) 
Heartbeat CPU 0 instructions: 76000000 cycles: 263930379 heartbeat IPC: 0.261117 cumulative IPC: 0.255911 (Simulation time: 1 hr 14 min 18 sec) 
Heartbeat CPU 0 instructions: 77000002 cycles: 268455055 heartbeat IPC: 0.221011 cumulative IPC: 0.255309 (Simulation time: 1 hr 15 min 4 sec) 
Heartbeat CPU 0 instructions: 78000003 cycles: 272313468 heartbeat IPC: 0.259174 cumulative IPC: 0.255365 (Simulation time: 1 hr 15 min 46 sec) 
Heartbeat CPU 0 instructions: 79000002 cycles: 276221987 heartbeat IPC: 0.255851 cumulative IPC: 0.255372 (Simulation time: 1 hr 16 min 25 sec) 
Heartbeat CPU 0 instructions: 80000000 cycles: 280066582 heartbeat IPC: 0.260105 cumulative IPC: 0.255438 (Simulation time: 1 hr 17 min 0 sec) 
Heartbeat CPU 0 instructions: 81000002 cycles: 284258922 heartbeat IPC: 0.238531 cumulative IPC: 0.255184 (Simulation time: 1 hr 17 min 35 sec) 
Heartbeat CPU 0 instructions: 82000000 cycles: 288550200 heartbeat IPC: 0.23303 cumulative IPC: 0.254847 (Simulation time: 1 hr 18 min 5 sec) 
Heartbeat CPU 0 instructions: 83000002 cycles: 292320923 heartbeat IPC: 0.265202 cumulative IPC: 0.254983 (Simulation time: 1 hr 18 min 37 sec) 
Heartbeat CPU 0 instructions: 84000000 cycles: 296290488 heartbeat IPC: 0.251916 cumulative IPC: 0.254942 (Simulation time: 1 hr 19 min 6 sec) 
Heartbeat CPU 0 instructions: 85000000 cycles: 300045810 heartbeat IPC: 0.266289 cumulative IPC: 0.255086 (Simulation time: 1 hr 19 min 34 sec) 
Heartbeat CPU 0 instructions: 86000000 cycles: 303931404 heartbeat IPC: 0.257361 cumulative IPC: 0.255116 (Simulation time: 1 hr 20 min 2 sec) 
Heartbeat CPU 0 instructions: 87000001 cycles: 307731311 heartbeat IPC: 0.263165 cumulative IPC: 0.255217 (Simulation time: 1 hr 20 min 29 sec) 
Heartbeat CPU 0 instructions: 88000000 cycles: 311496938 heartbeat IPC: 0.26556 cumulative IPC: 0.255345 (Simulation time: 1 hr 20 min 55 sec) 
Heartbeat CPU 0 instructions: 89000003 cycles: 314983784 heartbeat IPC: 0.286793 cumulative IPC: 0.2557 (Simulation time: 1 hr 21 min 19 sec) 
Heartbeat CPU 0 instructions: 90000000 cycles: 318802572 heartbeat IPC: 0.261862 cumulative IPC: 0.255775 (Simulation time: 1 hr 21 min 41 sec) 
Heartbeat CPU 0 instructions: 91000001 cycles: 322280794 heartbeat IPC: 0.287504 cumulative IPC: 0.256124 (Simulation time: 1 hr 22 min 2 sec) 
Heartbeat CPU 0 instructions: 92000000 cycles: 326306939 heartbeat IPC: 0.248376 cumulative IPC: 0.256027 (Simulation time: 1 hr 22 min 21 sec) 
Heartbeat CPU 0 instructions: 93000001 cycles: 330755225 heartbeat IPC: 0.224806 cumulative IPC: 0.255599 (Simulation time: 1 hr 22 min 40 sec) 
Heartbeat CPU 0 instructions: 94000001 cycles: 334555940 heartbeat IPC: 0.263108 cumulative IPC: 0.255686 (Simulation time: 1 hr 22 min 57 sec) 
Heartbeat CPU 0 instructions: 95000000 cycles: 338537134 heartbeat IPC: 0.251181 cumulative IPC: 0.255632 (Simulation time: 1 hr 23 min 14 sec) 
Heartbeat CPU 0 instructions: 96000000 cycles: 342964910 heartbeat IPC: 0.225847 cumulative IPC: 0.255241 (Simulation time: 1 hr 23 min 29 sec) 
Heartbeat CPU 0 instructions: 97000000 cycles: 346603229 heartbeat IPC: 0.274852 cumulative IPC: 0.25545 (Simulation time: 1 hr 23 min 41 sec) 
Heartbeat CPU 0 instructions: 98000000 cycles: 350829944 heartbeat IPC: 0.23659 cumulative IPC: 0.255219 (Simulation time: 1 hr 23 min 54 sec) 
Heartbeat CPU 0 instructions: 99000000 cycles: 355106150 heartbeat IPC: 0.233852 cumulative IPC: 0.254957 (Simulation time: 1 hr 24 min 4 sec) 
Heartbeat CPU 0 instructions: 100000000 cycles: 359154504 heartbeat IPC: 0.247014 cumulative IPC: 0.254866 (Simulation time: 1 hr 24 min 13 sec) 
Heartbeat CPU 0 instructions: 101000000 cycles: 363125708 heartbeat IPC: 0.251813 cumulative IPC: 0.254832 (Simulation time: 1 hr 24 min 21 sec) 
Heartbeat CPU 0 instructions: 102000003 cycles: 367135087 heartbeat IPC: 0.249416 cumulative IPC: 0.254772 (Simulation time: 1 hr 24 min 27 sec) 
Heartbeat CPU 0 instructions: 103000000 cycles: 370988115 heartbeat IPC: 0.259535 cumulative IPC: 0.254822 (Simulation time: 1 hr 24 min 34 sec) 
Heartbeat CPU 0 instructions: 104000000 cycles: 374764128 heartbeat IPC: 0.26483 cumulative IPC: 0.254925 (Simulation time: 1 hr 24 min 41 sec) 
Heartbeat CPU 0 instructions: 105000003 cycles: 378698840 heartbeat IPC: 0.254149 cumulative IPC: 0.254917 (Simulation time: 1 hr 24 min 48 sec) 
Heartbeat CPU 0 instructions: 106000001 cycles: 382247542 heartbeat IPC: 0.281793 cumulative IPC: 0.25517 (Simulation time: 1 hr 24 min 54 sec) 
Heartbeat CPU 0 instructions: 107000000 cycles: 386422117 heartbeat IPC: 0.239545 cumulative IPC: 0.254999 (Simulation time: 1 hr 25 min 2 sec) 
Heartbeat CPU 0 instructions: 108000000 cycles: 390420593 heartbeat IPC: 0.250095 cumulative IPC: 0.254948 (Simulation time: 1 hr 25 min 9 sec) 
Heartbeat CPU 0 instructions: 109000000 cycles: 394874672 heartbeat IPC: 0.224513 cumulative IPC: 0.254599 (Simulation time: 1 hr 25 min 16 sec) 
Heartbeat CPU 0 instructions: 110000000 cycles: 398554730 heartbeat IPC: 0.271735 cumulative IPC: 0.25476 (Simulation time: 1 hr 25 min 23 sec) 
Finished CPU 0 instructions: 100000000 cycles: 392526876 cummulative IPC: 0.25476 (Simulation time: 1 hr 25 min 23 sec) 

ChampSim completed all CPUs

Region of Interest Statistics

CPU 0 cummulative IPC: 0.25476 instructions: 100000000 cycles: 392526876
LLC TOTAL     ACCESS:    4309225  HIT:    1390857  MISS:    2918368
LLC LOAD      ACCESS:    1523119  HIT:     458571  MISS:    1064548
LLC RFO       ACCESS:     249919  HIT:      86356  MISS:     163563
LLC PREFETCH  ACCESS:    1530176  HIT:     134243  MISS:    1395933
LLC WRITEBACK ACCESS:    1006011  HIT:     711687  MISS:     294324
