
*** ChampSim Multicore Out-of-Order Simulator ***

Warmup Instructions: 10000000
Simulation Instructions: 100000000
Configuration: 2
Number of CPUs: 1
LLC sets: 2048
LLC ways: 16
Off-chip DRAM Channels: 1 Width: 64-bit Data Rate: 1600 MT/s

CPU 0 runs /datasets/cs240c-wi22-a00-public/data/Assignment2-gz/mcf_158B.trace.gz
CPU 0 L1D next line prefetcher
CPU 0 L2C IP-based stride prefetcher
Heartbeat CPU 0 instructions: 1000002 cycles: 512497 heartbeat IPC: 1.95123 cumulative IPC: 1.95123 (Simulation time: 0 hr 0 min 54 sec) 
Heartbeat CPU 0 instructions: 2000002 cycles: 1023643 heartbeat IPC: 1.95639 cumulative IPC: 1.95381 (Simulation time: 0 hr 1 min 42 sec) 
Heartbeat CPU 0 instructions: 3000000 cycles: 1536010 heartbeat IPC: 1.95172 cumulative IPC: 1.95311 (Simulation time: 0 hr 2 min 33 sec) 
Heartbeat CPU 0 instructions: 4000000 cycles: 2046519 heartbeat IPC: 1.95883 cumulative IPC: 1.95454 (Simulation time: 0 hr 3 min 24 sec) 
Heartbeat CPU 0 instructions: 5000002 cycles: 2553803 heartbeat IPC: 1.97129 cumulative IPC: 1.95787 (Simulation time: 0 hr 4 min 12 sec) 
Heartbeat CPU 0 instructions: 6000001 cycles: 3066163 heartbeat IPC: 1.95175 cumulative IPC: 1.95684 (Simulation time: 0 hr 5 min 2 sec) 
Heartbeat CPU 0 instructions: 7000001 cycles: 3574979 heartbeat IPC: 1.96535 cumulative IPC: 1.95805 (Simulation time: 0 hr 5 min 55 sec) 
Heartbeat CPU 0 instructions: 8000000 cycles: 4085441 heartbeat IPC: 1.95901 cumulative IPC: 1.95817 (Simulation time: 0 hr 6 min 41 sec) 
Heartbeat CPU 0 instructions: 9000000 cycles: 4604109 heartbeat IPC: 1.92802 cumulative IPC: 1.95478 (Simulation time: 0 hr 7 min 29 sec) 
Heartbeat CPU 0 instructions: 10000001 cycles: 5143908 heartbeat IPC: 1.85254 cumulative IPC: 1.94405 (Simulation time: 0 hr 8 min 20 sec) 

Warmup complete CPU 0 instructions: 10000001 cycles: 5143908 (Simulation time: 0 hr 8 min 20 sec) 

Heartbeat CPU 0 instructions: 11000001 cycles: 15592738 heartbeat IPC: 0.0957045 cumulative IPC: 0.0957045 (Simulation time: 0 hr 9 min 35 sec) 
Heartbeat CPU 0 instructions: 12000000 cycles: 24750044 heartbeat IPC: 0.109202 cumulative IPC: 0.102009 (Simulation time: 0 hr 10 min 41 sec) 
Heartbeat CPU 0 instructions: 13000001 cycles: 33840695 heartbeat IPC: 0.110003 cumulative IPC: 0.104541 (Simulation time: 0 hr 11 min 46 sec) 
Heartbeat CPU 0 instructions: 14000001 cycles: 42291346 heartbeat IPC: 0.118334 cumulative IPC: 0.107679 (Simulation time: 0 hr 12 min 48 sec) 
Heartbeat CPU 0 instructions: 15000000 cycles: 51206891 heartbeat IPC: 0.112164 cumulative IPC: 0.108547 (Simulation time: 0 hr 13 min 54 sec) 
Heartbeat CPU 0 instructions: 16000000 cycles: 67473404 heartbeat IPC: 0.061476 cumulative IPC: 0.0962626 (Simulation time: 0 hr 15 min 29 sec) 
Heartbeat CPU 0 instructions: 17000001 cycles: 79727458 heartbeat IPC: 0.0816057 cumulative IPC: 0.0938545 (Simulation time: 0 hr 16 min 49 sec) 
Heartbeat CPU 0 instructions: 18000000 cycles: 89181889 heartbeat IPC: 0.10577 cumulative IPC: 0.095195 (Simulation time: 0 hr 18 min 3 sec) 
Heartbeat CPU 0 instructions: 19000001 cycles: 98886410 heartbeat IPC: 0.103045 cumulative IPC: 0.0960077 (Simulation time: 0 hr 19 min 21 sec) 
Heartbeat CPU 0 instructions: 20000000 cycles: 108142956 heartbeat IPC: 0.108032 cumulative IPC: 0.0970883 (Simulation time: 0 hr 20 min 35 sec) 
Heartbeat CPU 0 instructions: 21000000 cycles: 117506299 heartbeat IPC: 0.106799 cumulative IPC: 0.0978975 (Simulation time: 0 hr 21 min 51 sec) 
Heartbeat CPU 0 instructions: 22000002 cycles: 126882211 heartbeat IPC: 0.106657 cumulative IPC: 0.0985721 (Simulation time: 0 hr 23 min 5 sec) 
Heartbeat CPU 0 instructions: 23000002 cycles: 137724863 heartbeat IPC: 0.0922284 cumulative IPC: 0.0980533 (Simulation time: 0 hr 24 min 27 sec) 
Heartbeat CPU 0 instructions: 24000000 cycles: 154331070 heartbeat IPC: 0.0602183 cumulative IPC: 0.0938419 (Simulation time: 0 hr 26 min 8 sec) 
Heartbeat CPU 0 instructions: 25000000 cycles: 164304847 heartbeat IPC: 0.100263 cumulative IPC: 0.0942442 (Simulation time: 0 hr 27 min 23 sec) 
Heartbeat CPU 0 instructions: 26000000 cycles: 172251075 heartbeat IPC: 0.125846 cumulative IPC: 0.0957469 (Simulation time: 0 hr 28 min 31 sec) 
Heartbeat CPU 0 instructions: 27000002 cycles: 180152512 heartbeat IPC: 0.12656 cumulative IPC: 0.0971381 (Simulation time: 0 hr 29 min 38 sec) 
Heartbeat CPU 0 instructions: 28000000 cycles: 195100464 heartbeat IPC: 0.0668987 cumulative IPC: 0.0947585 (Simulation time: 0 hr 31 min 10 sec) 
Heartbeat CPU 0 instructions: 29000003 cycles: 204258411 heartbeat IPC: 0.109195 cumulative IPC: 0.0954225 (Simulation time: 0 hr 32 min 25 sec) 
Heartbeat CPU 0 instructions: 30000003 cycles: 211692451 heartbeat IPC: 0.134516 cumulative IPC: 0.0968295 (Simulation time: 0 hr 33 min 30 sec) 
Heartbeat CPU 0 instructions: 31000003 cycles: 220151772 heartbeat IPC: 0.118213 cumulative IPC: 0.0976709 (Simulation time: 0 hr 34 min 42 sec) 
Heartbeat CPU 0 instructions: 32000000 cycles: 235367604 heartbeat IPC: 0.0657208 cumulative IPC: 0.0955592 (Simulation time: 0 hr 36 min 14 sec) 
Heartbeat CPU 0 instructions: 33000000 cycles: 243876957 heartbeat IPC: 0.117518 cumulative IPC: 0.0963419 (Simulation time: 0 hr 37 min 20 sec) 
Heartbeat CPU 0 instructions: 34000000 cycles: 252107691 heartbeat IPC: 0.121496 cumulative IPC: 0.0971802 (Simulation time: 0 hr 38 min 26 sec) 
Heartbeat CPU 0 instructions: 35000001 cycles: 260751511 heartbeat IPC: 0.11569 cumulative IPC: 0.0978062 (Simulation time: 0 hr 39 min 39 sec) 
Heartbeat CPU 0 instructions: 36000000 cycles: 276212610 heartbeat IPC: 0.0646784 cumulative IPC: 0.0959166 (Simulation time: 0 hr 41 min 16 sec) 
Heartbeat CPU 0 instructions: 37000001 cycles: 285098964 heartbeat IPC: 0.112532 cumulative IPC: 0.0964441 (Simulation time: 0 hr 42 min 32 sec) 
Heartbeat CPU 0 instructions: 38000000 cycles: 293618986 heartbeat IPC: 0.11737 cumulative IPC: 0.0970621 (Simulation time: 0 hr 43 min 45 sec) 
Heartbeat CPU 0 instructions: 39000000 cycles: 301047886 heartbeat IPC: 0.134609 cumulative IPC: 0.0980048 (Simulation time: 0 hr 44 min 51 sec) 
Heartbeat CPU 0 instructions: 40000000 cycles: 315486745 heartbeat IPC: 0.0692575 cumulative IPC: 0.0966673 (Simulation time: 0 hr 46 min 23 sec) 
Heartbeat CPU 0 instructions: 41000003 cycles: 324683659 heartbeat IPC: 0.108732 cumulative IPC: 0.0970145 (Simulation time: 0 hr 47 min 38 sec) 
Heartbeat CPU 0 instructions: 42000000 cycles: 332053611 heartbeat IPC: 0.135686 cumulative IPC: 0.0978864 (Simulation time: 0 hr 48 min 43 sec) 
Heartbeat CPU 0 instructions: 43000001 cycles: 342837511 heartbeat IPC: 0.0927309 cumulative IPC: 0.0977217 (Simulation time: 0 hr 49 min 55 sec) 
Heartbeat CPU 0 instructions: 44000000 cycles: 354925835 heartbeat IPC: 0.0827244 cumulative IPC: 0.0972034 (Simulation time: 0 hr 51 min 17 sec) 
Heartbeat CPU 0 instructions: 45000000 cycles: 361527384 heartbeat IPC: 0.15148 cumulative IPC: 0.0982088 (Simulation time: 0 hr 52 min 18 sec) 
Heartbeat CPU 0 instructions: 46000002 cycles: 371852835 heartbeat IPC: 0.0968483 cumulative IPC: 0.0981705 (Simulation time: 0 hr 53 min 35 sec) 
Heartbeat CPU 0 instructions: 47000002 cycles: 384297371 heartbeat IPC: 0.0803566 cumulative IPC: 0.0975858 (Simulation time: 0 hr 55 min 3 sec) 
Heartbeat CPU 0 instructions: 48000000 cycles: 391179043 heartbeat IPC: 0.145313 cumulative IPC: 0.0984366 (Simulation time: 0 hr 56 min 8 sec) 
Heartbeat CPU 0 instructions: 49000003 cycles: 401439247 heartbeat IPC: 0.0974642 cumulative IPC: 0.0984115 (Simulation time: 0 hr 57 min 27 sec) 
Heartbeat CPU 0 instructions: 50000000 cycles: 413827011 heartbeat IPC: 0.0807246 cumulative IPC: 0.0978753 (Simulation time: 0 hr 58 min 54 sec) 
Heartbeat CPU 0 instructions: 51000000 cycles: 420377604 heartbeat IPC: 0.152658 cumulative IPC: 0.0987396 (Simulation time: 0 hr 59 min 56 sec) 
Heartbeat CPU 0 instructions: 52000000 cycles: 429919483 heartbeat IPC: 0.104801 cumulative IPC: 0.0988757 (Simulation time: 1 hr 1 min 11 sec) 
Heartbeat CPU 0 instructions: 53000000 cycles: 443388844 heartbeat IPC: 0.0742426 cumulative IPC: 0.0981186 (Simulation time: 1 hr 2 min 37 sec) 
Heartbeat CPU 0 instructions: 54000000 cycles: 450202198 heartbeat IPC: 0.146771 cumulative IPC: 0.0988635 (Simulation time: 1 hr 3 min 32 sec) 
Heartbeat CPU 0 instructions: 55000000 cycles: 458339105 heartbeat IPC: 0.122897 cumulative IPC: 0.099295 (Simulation time: 1 hr 4 min 30 sec) 
Heartbeat CPU 0 instructions: 56000000 cycles: 473161624 heartbeat IPC: 0.0674649 cumulative IPC: 0.0982869 (Simulation time: 1 hr 5 min 50 sec) 
Heartbeat CPU 0 instructions: 57000001 cycles: 480130259 heartbeat IPC: 0.1435 cumulative IPC: 0.0989502 (Simulation time: 1 hr 6 min 49 sec) 
Heartbeat CPU 0 instructions: 58000001 cycles: 486910678 heartbeat IPC: 0.147484 cumulative IPC: 0.0996333 (Simulation time: 1 hr 7 min 48 sec) 
Heartbeat CPU 0 instructions: 59000000 cycles: 502494013 heartbeat IPC: 0.0641711 cumulative IPC: 0.0985221 (Simulation time: 1 hr 9 min 10 sec) 
Heartbeat CPU 0 instructions: 60000000 cycles: 509539609 heartbeat IPC: 0.141933 cumulative IPC: 0.0991285 (Simulation time: 1 hr 10 min 4 sec) 
Heartbeat CPU 0 instructions: 61000000 cycles: 516823773 heartbeat IPC: 0.137284 cumulative IPC: 0.0996717 (Simulation time: 1 hr 10 min 54 sec) 
Heartbeat CPU 0 instructions: 62000001 cycles: 529256837 heartbeat IPC: 0.0804308 cumulative IPC: 0.0992153 (Simulation time: 1 hr 12 min 1 sec) 
Heartbeat CPU 0 instructions: 63000001 cycles: 539700492 heartbeat IPC: 0.0957519 cumulative IPC: 0.0991476 (Simulation time: 1 hr 12 min 59 sec) 
Heartbeat CPU 0 instructions: 64000000 cycles: 546450610 heartbeat IPC: 0.148145 cumulative IPC: 0.0997586 (Simulation time: 1 hr 13 min 44 sec) 
Heartbeat CPU 0 instructions: 65000000 cycles: 554147855 heartbeat IPC: 0.129917 cumulative IPC: 0.100181 (Simulation time: 1 hr 14 min 30 sec) 
Heartbeat CPU 0 instructions: 66000000 cycles: 569016823 heartbeat IPC: 0.0672542 cumulative IPC: 0.0993132 (Simulation time: 1 hr 15 min 32 sec) 
Heartbeat CPU 0 instructions: 67000002 cycles: 575682997 heartbeat IPC: 0.150011 cumulative IPC: 0.0999055 (Simulation time: 1 hr 16 min 10 sec) 
Heartbeat CPU 0 instructions: 68000000 cycles: 582281702 heartbeat IPC: 0.151545 cumulative IPC: 0.100496 (Simulation time: 1 hr 16 min 46 sec) 
Heartbeat CPU 0 instructions: 69000000 cycles: 595255820 heartbeat IPC: 0.0770765 cumulative IPC: 0.099981 (Simulation time: 1 hr 17 min 28 sec) 
Heartbeat CPU 0 instructions: 70000000 cycles: 604516974 heartbeat IPC: 0.107978 cumulative IPC: 0.100105 (Simulation time: 1 hr 18 min 2 sec) 
Heartbeat CPU 0 instructions: 71000002 cycles: 610998691 heartbeat IPC: 0.15428 cumulative IPC: 0.100684 (Simulation time: 1 hr 18 min 33 sec) 
Heartbeat CPU 0 instructions: 72000000 cycles: 619114316 heartbeat IPC: 0.123219 cumulative IPC: 0.100982 (Simulation time: 1 hr 19 min 4 sec) 
Heartbeat CPU 0 instructions: 73000000 cycles: 633812316 heartbeat IPC: 0.0680365 cumulative IPC: 0.100212 (Simulation time: 1 hr 19 min 46 sec) 
Heartbeat CPU 0 instructions: 74000000 cycles: 640744191 heartbeat IPC: 0.144261 cumulative IPC: 0.100692 (Simulation time: 1 hr 20 min 13 sec) 
Heartbeat CPU 0 instructions: 75000001 cycles: 647661999 heartbeat IPC: 0.144555 cumulative IPC: 0.101164 (Simulation time: 1 hr 20 min 41 sec) 
Heartbeat CPU 0 instructions: 76000000 cycles: 659917138 heartbeat IPC: 0.0815983 cumulative IPC: 0.100798 (Simulation time: 1 hr 21 min 15 sec) 
Heartbeat CPU 0 instructions: 77000000 cycles: 670695614 heartbeat IPC: 0.0927775 cumulative IPC: 0.100668 (Simulation time: 1 hr 21 min 46 sec) 
Heartbeat CPU 0 instructions: 78000000 cycles: 678128808 heartbeat IPC: 0.134532 cumulative IPC: 0.101042 (Simulation time: 1 hr 22 min 7 sec) 
Heartbeat CPU 0 instructions: 79000003 cycles: 685797887 heartbeat IPC: 0.130394 cumulative IPC: 0.101373 (Simulation time: 1 hr 22 min 27 sec) 
Heartbeat CPU 0 instructions: 80000000 cycles: 701325286 heartbeat IPC: 0.0644021 cumulative IPC: 0.100549 (Simulation time: 1 hr 22 min 54 sec) 
Heartbeat CPU 0 instructions: 81000001 cycles: 709138750 heartbeat IPC: 0.127984 cumulative IPC: 0.100853 (Simulation time: 1 hr 23 min 12 sec) 
Heartbeat CPU 0 instructions: 82000001 cycles: 716571856 heartbeat IPC: 0.134533 cumulative IPC: 0.101205 (Simulation time: 1 hr 23 min 27 sec) 
Heartbeat CPU 0 instructions: 83000001 cycles: 729360115 heartbeat IPC: 0.0781967 cumulative IPC: 0.100799 (Simulation time: 1 hr 23 min 45 sec) 
Heartbeat CPU 0 instructions: 84000000 cycles: 740575021 heartbeat IPC: 0.089167 cumulative IPC: 0.100621 (Simulation time: 1 hr 24 min 1 sec) 
Heartbeat CPU 0 instructions: 85000000 cycles: 747397142 heartbeat IPC: 0.146582 cumulative IPC: 0.101044 (Simulation time: 1 hr 24 min 11 sec) 
Heartbeat CPU 0 instructions: 86000000 cycles: 755416953 heartbeat IPC: 0.124691 cumulative IPC: 0.101296 (Simulation time: 1 hr 24 min 20 sec) 
Heartbeat CPU 0 instructions: 87000000 cycles: 770631550 heartbeat IPC: 0.0657264 cumulative IPC: 0.100589 (Simulation time: 1 hr 24 min 31 sec) 
Heartbeat CPU 0 instructions: 88000000 cycles: 778258217 heartbeat IPC: 0.131119 cumulative IPC: 0.100891 (Simulation time: 1 hr 24 min 39 sec) 
Heartbeat CPU 0 instructions: 89000000 cycles: 785981120 heartbeat IPC: 0.129485 cumulative IPC: 0.101173 (Simulation time: 1 hr 24 min 47 sec) 
Heartbeat CPU 0 instructions: 90000002 cycles: 800083572 heartbeat IPC: 0.0709098 cumulative IPC: 0.100637 (Simulation time: 1 hr 24 min 58 sec) 
Heartbeat CPU 0 instructions: 91000000 cycles: 809898897 heartbeat IPC: 0.101881 cumulative IPC: 0.100652 (Simulation time: 1 hr 25 min 7 sec) 
Heartbeat CPU 0 instructions: 92000000 cycles: 817197080 heartbeat IPC: 0.13702 cumulative IPC: 0.100979 (Simulation time: 1 hr 25 min 15 sec) 
Heartbeat CPU 0 instructions: 93000003 cycles: 828480101 heartbeat IPC: 0.088629 cumulative IPC: 0.100809 (Simulation time: 1 hr 25 min 25 sec) 
Heartbeat CPU 0 instructions: 94000000 cycles: 840591206 heartbeat IPC: 0.0825686 cumulative IPC: 0.100545 (Simulation time: 1 hr 25 min 35 sec) 
Heartbeat CPU 0 instructions: 95000000 cycles: 847877439 heartbeat IPC: 0.137245 cumulative IPC: 0.100862 (Simulation time: 1 hr 25 min 42 sec) 
Heartbeat CPU 0 instructions: 96000000 cycles: 855704981 heartbeat IPC: 0.127754 cumulative IPC: 0.10111 (Simulation time: 1 hr 25 min 50 sec) 
Heartbeat CPU 0 instructions: 97000003 cycles: 871358166 heartbeat IPC: 0.063885 cumulative IPC: 0.100437 (Simulation time: 1 hr 26 min 1 sec) 
Heartbeat CPU 0 instructions: 98000002 cycles: 879071819 heartbeat IPC: 0.12964 cumulative IPC: 0.100695 (Simulation time: 1 hr 26 min 9 sec) 
Heartbeat CPU 0 instructions: 99000000 cycles: 886709807 heartbeat IPC: 0.130924 cumulative IPC: 0.100957 (Simulation time: 1 hr 26 min 16 sec) 
Heartbeat CPU 0 instructions: 100000000 cycles: 900185527 heartbeat IPC: 0.0742075 cumulative IPC: 0.100554 (Simulation time: 1 hr 26 min 26 sec) 
Heartbeat CPU 0 instructions: 101000000 cycles: 910492738 heartbeat IPC: 0.0970195 cumulative IPC: 0.100514 (Simulation time: 1 hr 26 min 35 sec) 
Heartbeat CPU 0 instructions: 102000000 cycles: 918223414 heartbeat IPC: 0.129355 cumulative IPC: 0.100758 (Simulation time: 1 hr 26 min 43 sec) 
Heartbeat CPU 0 instructions: 103000001 cycles: 925521489 heartbeat IPC: 0.137023 cumulative IPC: 0.101045 (Simulation time: 1 hr 26 min 51 sec) 
Heartbeat CPU 0 instructions: 104000000 cycles: 941424119 heartbeat IPC: 0.0628826 cumulative IPC: 0.100397 (Simulation time: 1 hr 27 min 2 sec) 
Heartbeat CPU 0 instructions: 105000000 cycles: 950096870 heartbeat IPC: 0.115304 cumulative IPC: 0.100534 (Simulation time: 1 hr 27 min 10 sec) 
Heartbeat CPU 0 instructions: 106000000 cycles: 957793385 heartbeat IPC: 0.129929 cumulative IPC: 0.100772 (Simulation time: 1 hr 27 min 18 sec) 
Heartbeat CPU 0 instructions: 107000000 cycles: 968083668 heartbeat IPC: 0.0971791 cumulative IPC: 0.100733 (Simulation time: 1 hr 27 min 27 sec) 
Heartbeat CPU 0 instructions: 108000000 cycles: 982294447 heartbeat IPC: 0.0703691 cumulative IPC: 0.100292 (Simulation time: 1 hr 27 min 37 sec) 
Heartbeat CPU 0 instructions: 109000000 cycles: 990273170 heartbeat IPC: 0.125333 cumulative IPC: 0.100494 (Simulation time: 1 hr 27 min 45 sec) 
Heartbeat CPU 0 instructions: 110000000 cycles: 998660389 heartbeat IPC: 0.119229 cumulative IPC: 0.100653 (Simulation time: 1 hr 27 min 53 sec) 
Finished CPU 0 instructions: 100000002 cycles: 993516483 cummulative IPC: 0.100653 (Simulation time: 1 hr 27 min 53 sec) 

ChampSim completed all CPUs

Region of Interest Statistics

CPU 0 cummulative IPC: 0.100653 instructions: 100000002 cycles: 993516483
LLC TOTAL     ACCESS:   21080100  HIT:    8297811  MISS:   12782289
LLC LOAD      ACCESS:    9507801  HIT:    5110164  MISS:    4397637
LLC RFO       ACCESS:     164396  HIT:      96051  MISS:      68345
LLC PREFETCH  ACCESS:    9645209  HIT:    1964155  MISS:    7681054
LLC WRITEBACK ACCESS:    1762694  HIT:    1127441  MISS:     635253
