
*** ChampSim Multicore Out-of-Order Simulator ***

Warmup Instructions: 10000000
Simulation Instructions: 100000000
Configuration: 2
Number of CPUs: 1
LLC sets: 2048
LLC ways: 16
Off-chip DRAM Channels: 1 Width: 64-bit Data Rate: 1600 MT/s

CPU 0 runs /datasets/cs240c-wi22-a00-public/data/Assignment2-gz/libquantum_1210B.trace.gz
CPU 0 L1D next line prefetcher
CPU 0 L2C IP-based stride prefetcher
Heartbeat CPU 0 instructions: 1000003 cycles: 314916 heartbeat IPC: 3.17546 cumulative IPC: 3.17546 (Simulation time: 0 hr 0 min 22 sec) 
Heartbeat CPU 0 instructions: 2000000 cycles: 630170 heartbeat IPC: 3.17204 cumulative IPC: 3.17375 (Simulation time: 0 hr 0 min 44 sec) 
Heartbeat CPU 0 instructions: 3000001 cycles: 945979 heartbeat IPC: 3.16647 cumulative IPC: 3.17132 (Simulation time: 0 hr 1 min 6 sec) 
Heartbeat CPU 0 instructions: 4000000 cycles: 1260333 heartbeat IPC: 3.18112 cumulative IPC: 3.17376 (Simulation time: 0 hr 1 min 28 sec) 
Heartbeat CPU 0 instructions: 5000001 cycles: 1576818 heartbeat IPC: 3.15971 cumulative IPC: 3.17094 (Simulation time: 0 hr 1 min 50 sec) 
Heartbeat CPU 0 instructions: 6000002 cycles: 1891318 heartbeat IPC: 3.17965 cumulative IPC: 3.17239 (Simulation time: 0 hr 2 min 12 sec) 
Heartbeat CPU 0 instructions: 7000001 cycles: 2206981 heartbeat IPC: 3.16793 cumulative IPC: 3.17175 (Simulation time: 0 hr 2 min 35 sec) 
Heartbeat CPU 0 instructions: 8000000 cycles: 2522385 heartbeat IPC: 3.17053 cumulative IPC: 3.1716 (Simulation time: 0 hr 2 min 57 sec) 
Heartbeat CPU 0 instructions: 9000002 cycles: 2837144 heartbeat IPC: 3.17704 cumulative IPC: 3.1722 (Simulation time: 0 hr 3 min 23 sec) 
Heartbeat CPU 0 instructions: 10000003 cycles: 3153454 heartbeat IPC: 3.16146 cumulative IPC: 3.17113 (Simulation time: 0 hr 3 min 49 sec) 

Warmup complete CPU 0 instructions: 10000003 cycles: 3153454 (Simulation time: 0 hr 3 min 49 sec) 

Heartbeat CPU 0 instructions: 11000001 cycles: 5269410 heartbeat IPC: 0.472599 cumulative IPC: 0.472599 (Simulation time: 0 hr 4 min 27 sec) 
Heartbeat CPU 0 instructions: 12000000 cycles: 7312588 heartbeat IPC: 0.489433 cumulative IPC: 0.480869 (Simulation time: 0 hr 5 min 5 sec) 
Heartbeat CPU 0 instructions: 13000003 cycles: 9750820 heartbeat IPC: 0.410134 cumulative IPC: 0.454727 (Simulation time: 0 hr 5 min 44 sec) 
Heartbeat CPU 0 instructions: 14000001 cycles: 12234409 heartbeat IPC: 0.402642 cumulative IPC: 0.440482 (Simulation time: 0 hr 6 min 28 sec) 
Heartbeat CPU 0 instructions: 15000001 cycles: 14724498 heartbeat IPC: 0.401592 cumulative IPC: 0.432113 (Simulation time: 0 hr 7 min 8 sec) 
Heartbeat CPU 0 instructions: 16000000 cycles: 17250925 heartbeat IPC: 0.395816 cumulative IPC: 0.425608 (Simulation time: 0 hr 7 min 47 sec) 
Heartbeat CPU 0 instructions: 17000000 cycles: 19777624 heartbeat IPC: 0.395773 cumulative IPC: 0.421073 (Simulation time: 0 hr 8 min 25 sec) 
Heartbeat CPU 0 instructions: 18000002 cycles: 22325362 heartbeat IPC: 0.392506 cumulative IPC: 0.417277 (Simulation time: 0 hr 9 min 4 sec) 
Heartbeat CPU 0 instructions: 19000000 cycles: 24879428 heartbeat IPC: 0.391532 cumulative IPC: 0.414251 (Simulation time: 0 hr 9 min 44 sec) 
Heartbeat CPU 0 instructions: 20000000 cycles: 27393855 heartbeat IPC: 0.397705 cumulative IPC: 0.412534 (Simulation time: 0 hr 10 min 25 sec) 
Heartbeat CPU 0 instructions: 21000001 cycles: 29921022 heartbeat IPC: 0.3957 cumulative IPC: 0.410945 (Simulation time: 0 hr 11 min 5 sec) 
Heartbeat CPU 0 instructions: 22000003 cycles: 32441932 heartbeat IPC: 0.396683 cumulative IPC: 0.409717 (Simulation time: 0 hr 11 min 44 sec) 
Heartbeat CPU 0 instructions: 23000000 cycles: 34975468 heartbeat IPC: 0.394704 cumulative IPC: 0.408522 (Simulation time: 0 hr 12 min 23 sec) 
Heartbeat CPU 0 instructions: 24000000 cycles: 37517159 heartbeat IPC: 0.393439 cumulative IPC: 0.407407 (Simulation time: 0 hr 13 min 1 sec) 
Heartbeat CPU 0 instructions: 25000000 cycles: 40063392 heartbeat IPC: 0.392737 cumulative IPC: 0.406395 (Simulation time: 0 hr 13 min 41 sec) 
Heartbeat CPU 0 instructions: 26000000 cycles: 42608489 heartbeat IPC: 0.392912 cumulative IPC: 0.405525 (Simulation time: 0 hr 14 min 21 sec) 
Heartbeat CPU 0 instructions: 27000003 cycles: 45158041 heartbeat IPC: 0.392227 cumulative IPC: 0.404718 (Simulation time: 0 hr 14 min 59 sec) 
Heartbeat CPU 0 instructions: 28000000 cycles: 47573151 heartbeat IPC: 0.414059 cumulative IPC: 0.405226 (Simulation time: 0 hr 15 min 40 sec) 
Heartbeat CPU 0 instructions: 29000002 cycles: 49081702 heartbeat IPC: 0.662889 cumulative IPC: 0.413689 (Simulation time: 0 hr 16 min 18 sec) 
Heartbeat CPU 0 instructions: 30000001 cycles: 50559233 heartbeat IPC: 0.676804 cumulative IPC: 0.421889 (Simulation time: 0 hr 16 min 58 sec) 
Heartbeat CPU 0 instructions: 31000000 cycles: 52030299 heartbeat IPC: 0.679778 cumulative IPC: 0.429651 (Simulation time: 0 hr 17 min 40 sec) 
Heartbeat CPU 0 instructions: 32000000 cycles: 53501154 heartbeat IPC: 0.679877 cumulative IPC: 0.436961 (Simulation time: 0 hr 18 min 22 sec) 
Heartbeat CPU 0 instructions: 33000000 cycles: 54972034 heartbeat IPC: 0.679865 cumulative IPC: 0.443856 (Simulation time: 0 hr 19 min 4 sec) 
Heartbeat CPU 0 instructions: 34000002 cycles: 56443100 heartbeat IPC: 0.67978 cumulative IPC: 0.450369 (Simulation time: 0 hr 19 min 49 sec) 
Heartbeat CPU 0 instructions: 35000001 cycles: 57913964 heartbeat IPC: 0.679872 cumulative IPC: 0.456533 (Simulation time: 0 hr 20 min 31 sec) 
Heartbeat CPU 0 instructions: 36000000 cycles: 59384900 heartbeat IPC: 0.679839 cumulative IPC: 0.462375 (Simulation time: 0 hr 21 min 16 sec) 
Heartbeat CPU 0 instructions: 37000001 cycles: 60855784 heartbeat IPC: 0.679864 cumulative IPC: 0.467919 (Simulation time: 0 hr 21 min 59 sec) 
Heartbeat CPU 0 instructions: 38000002 cycles: 62326736 heartbeat IPC: 0.679833 cumulative IPC: 0.473187 (Simulation time: 0 hr 22 min 41 sec) 
Heartbeat CPU 0 instructions: 39000001 cycles: 63797536 heartbeat IPC: 0.679901 cumulative IPC: 0.4782 (Simulation time: 0 hr 23 min 21 sec) 
Heartbeat CPU 0 instructions: 40000000 cycles: 65268350 heartbeat IPC: 0.679895 cumulative IPC: 0.482976 (Simulation time: 0 hr 24 min 4 sec) 
Heartbeat CPU 0 instructions: 41000000 cycles: 66739435 heartbeat IPC: 0.67977 cumulative IPC: 0.487529 (Simulation time: 0 hr 24 min 49 sec) 
Heartbeat CPU 0 instructions: 42000000 cycles: 68212212 heartbeat IPC: 0.678989 cumulative IPC: 0.491863 (Simulation time: 0 hr 25 min 30 sec) 
Heartbeat CPU 0 instructions: 43000002 cycles: 69681223 heartbeat IPC: 0.680731 cumulative IPC: 0.496033 (Simulation time: 0 hr 26 min 15 sec) 
Heartbeat CPU 0 instructions: 44000000 cycles: 71160931 heartbeat IPC: 0.675808 cumulative IPC: 0.499945 (Simulation time: 0 hr 27 min 1 sec) 
Heartbeat CPU 0 instructions: 45000000 cycles: 72634159 heartbeat IPC: 0.678782 cumulative IPC: 0.503737 (Simulation time: 0 hr 27 min 44 sec) 
Heartbeat CPU 0 instructions: 46000003 cycles: 74121317 heartbeat IPC: 0.672426 cumulative IPC: 0.507272 (Simulation time: 0 hr 28 min 28 sec) 
Heartbeat CPU 0 instructions: 47000002 cycles: 75762023 heartbeat IPC: 0.609493 cumulative IPC: 0.509582 (Simulation time: 0 hr 29 min 8 sec) 
Heartbeat CPU 0 instructions: 48000000 cycles: 78004101 heartbeat IPC: 0.446014 cumulative IPC: 0.507678 (Simulation time: 0 hr 29 min 52 sec) 
Heartbeat CPU 0 instructions: 49000000 cycles: 80259654 heartbeat IPC: 0.44335 cumulative IPC: 0.505796 (Simulation time: 0 hr 30 min 34 sec) 
Heartbeat CPU 0 instructions: 50000003 cycles: 82554308 heartbeat IPC: 0.435797 cumulative IPC: 0.503773 (Simulation time: 0 hr 31 min 17 sec) 
Heartbeat CPU 0 instructions: 51000000 cycles: 84873979 heartbeat IPC: 0.431094 cumulative IPC: 0.50171 (Simulation time: 0 hr 32 min 2 sec) 
Heartbeat CPU 0 instructions: 52000000 cycles: 87193688 heartbeat IPC: 0.431089 cumulative IPC: 0.499761 (Simulation time: 0 hr 32 min 48 sec) 
Heartbeat CPU 0 instructions: 53000003 cycles: 89446190 heartbeat IPC: 0.443952 cumulative IPC: 0.498304 (Simulation time: 0 hr 33 min 34 sec) 
Heartbeat CPU 0 instructions: 54000003 cycles: 91688207 heartbeat IPC: 0.446027 cumulative IPC: 0.49698 (Simulation time: 0 hr 34 min 22 sec) 
Heartbeat CPU 0 instructions: 55000002 cycles: 93901624 heartbeat IPC: 0.45179 cumulative IPC: 0.495878 (Simulation time: 0 hr 35 min 9 sec) 
Heartbeat CPU 0 instructions: 56000000 cycles: 96145403 heartbeat IPC: 0.445676 cumulative IPC: 0.494666 (Simulation time: 0 hr 36 min 4 sec) 
Heartbeat CPU 0 instructions: 57000001 cycles: 98376662 heartbeat IPC: 0.448178 cumulative IPC: 0.493577 (Simulation time: 0 hr 37 min 0 sec) 
Heartbeat CPU 0 instructions: 58000000 cycles: 100599399 heartbeat IPC: 0.449895 cumulative IPC: 0.492581 (Simulation time: 0 hr 37 min 53 sec) 
Heartbeat CPU 0 instructions: 59000000 cycles: 102826766 heartbeat IPC: 0.448961 cumulative IPC: 0.491606 (Simulation time: 0 hr 38 min 48 sec) 
Heartbeat CPU 0 instructions: 60000000 cycles: 105037698 heartbeat IPC: 0.452298 cumulative IPC: 0.490753 (Simulation time: 0 hr 39 min 44 sec) 
Heartbeat CPU 0 instructions: 61000001 cycles: 107255826 heartbeat IPC: 0.450831 cumulative IPC: 0.489902 (Simulation time: 0 hr 40 min 34 sec) 
Heartbeat CPU 0 instructions: 62000000 cycles: 109484887 heartbeat IPC: 0.448619 cumulative IPC: 0.489037 (Simulation time: 0 hr 41 min 29 sec) 
Heartbeat CPU 0 instructions: 63000001 cycles: 111602294 heartbeat IPC: 0.472276 cumulative IPC: 0.48871 (Simulation time: 0 hr 42 min 22 sec) 
Heartbeat CPU 0 instructions: 64000000 cycles: 113670090 heartbeat IPC: 0.483606 cumulative IPC: 0.488614 (Simulation time: 0 hr 43 min 8 sec) 
Heartbeat CPU 0 instructions: 65000000 cycles: 115705499 heartbeat IPC: 0.491302 cumulative IPC: 0.488663 (Simulation time: 0 hr 43 min 55 sec) 
Heartbeat CPU 0 instructions: 66000001 cycles: 117729239 heartbeat IPC: 0.494135 cumulative IPC: 0.488759 (Simulation time: 0 hr 44 min 38 sec) 
Heartbeat CPU 0 instructions: 67000000 cycles: 119681452 heartbeat IPC: 0.512239 cumulative IPC: 0.489153 (Simulation time: 0 hr 45 min 13 sec) 
Heartbeat CPU 0 instructions: 68000000 cycles: 121636549 heartbeat IPC: 0.511484 cumulative IPC: 0.489521 (Simulation time: 0 hr 45 min 50 sec) 
Heartbeat CPU 0 instructions: 69000002 cycles: 123531706 heartbeat IPC: 0.527662 cumulative IPC: 0.490122 (Simulation time: 0 hr 46 min 27 sec) 
Heartbeat CPU 0 instructions: 70000001 cycles: 125547914 heartbeat IPC: 0.49598 cumulative IPC: 0.490218 (Simulation time: 0 hr 47 min 8 sec) 
Heartbeat CPU 0 instructions: 71000000 cycles: 127602514 heartbeat IPC: 0.486712 cumulative IPC: 0.49016 (Simulation time: 0 hr 47 min 59 sec) 
Heartbeat CPU 0 instructions: 72000000 cycles: 129615926 heartbeat IPC: 0.496669 cumulative IPC: 0.490264 (Simulation time: 0 hr 48 min 46 sec) 
Heartbeat CPU 0 instructions: 73000002 cycles: 131691762 heartbeat IPC: 0.481735 cumulative IPC: 0.490126 (Simulation time: 0 hr 49 min 37 sec) 
Heartbeat CPU 0 instructions: 74000002 cycles: 133731644 heartbeat IPC: 0.490224 cumulative IPC: 0.490128 (Simulation time: 0 hr 50 min 26 sec) 
Heartbeat CPU 0 instructions: 75000001 cycles: 135803603 heartbeat IPC: 0.482635 cumulative IPC: 0.490011 (Simulation time: 0 hr 51 min 15 sec) 
Heartbeat CPU 0 instructions: 76000000 cycles: 137856689 heartbeat IPC: 0.487071 cumulative IPC: 0.489966 (Simulation time: 0 hr 52 min 10 sec) 
Heartbeat CPU 0 instructions: 77000000 cycles: 139895917 heartbeat IPC: 0.490382 cumulative IPC: 0.489972 (Simulation time: 0 hr 53 min 0 sec) 
Heartbeat CPU 0 instructions: 78000002 cycles: 141983681 heartbeat IPC: 0.478982 cumulative IPC: 0.489807 (Simulation time: 0 hr 53 min 56 sec) 
Heartbeat CPU 0 instructions: 79000001 cycles: 144019979 heartbeat IPC: 0.491087 cumulative IPC: 0.489825 (Simulation time: 0 hr 54 min 52 sec) 
Heartbeat CPU 0 instructions: 80000000 cycles: 146097259 heartbeat IPC: 0.481398 cumulative IPC: 0.489703 (Simulation time: 0 hr 55 min 46 sec) 
Heartbeat CPU 0 instructions: 81000000 cycles: 148154526 heartbeat IPC: 0.486082 cumulative IPC: 0.489652 (Simulation time: 0 hr 56 min 42 sec) 
Heartbeat CPU 0 instructions: 82000000 cycles: 150215734 heartbeat IPC: 0.485152 cumulative IPC: 0.489588 (Simulation time: 0 hr 57 min 37 sec) 
Heartbeat CPU 0 instructions: 83000001 cycles: 152488962 heartbeat IPC: 0.439904 cumulative IPC: 0.488832 (Simulation time: 0 hr 58 min 37 sec) 
Heartbeat CPU 0 instructions: 84000000 cycles: 154869904 heartbeat IPC: 0.420001 cumulative IPC: 0.487752 (Simulation time: 0 hr 59 min 33 sec) 
Heartbeat CPU 0 instructions: 85000001 cycles: 157199969 heartbeat IPC: 0.429173 cumulative IPC: 0.486866 (Simulation time: 1 hr 0 min 30 sec) 
Heartbeat CPU 0 instructions: 86000001 cycles: 159489594 heartbeat IPC: 0.436753 cumulative IPC: 0.486132 (Simulation time: 1 hr 1 min 24 sec) 
Heartbeat CPU 0 instructions: 87000003 cycles: 161727298 heartbeat IPC: 0.446888 cumulative IPC: 0.485578 (Simulation time: 1 hr 2 min 15 sec) 
Heartbeat CPU 0 instructions: 88000000 cycles: 164011850 heartbeat IPC: 0.437721 cumulative IPC: 0.484899 (Simulation time: 1 hr 3 min 18 sec) 
Heartbeat CPU 0 instructions: 89000001 cycles: 166415174 heartbeat IPC: 0.416091 cumulative IPC: 0.483886 (Simulation time: 1 hr 4 min 11 sec) 
Heartbeat CPU 0 instructions: 90000000 cycles: 168752126 heartbeat IPC: 0.427907 cumulative IPC: 0.483096 (Simulation time: 1 hr 4 min 53 sec) 
Heartbeat CPU 0 instructions: 91000002 cycles: 171140439 heartbeat IPC: 0.418706 cumulative IPC: 0.48218 (Simulation time: 1 hr 5 min 45 sec) 
Heartbeat CPU 0 instructions: 92000000 cycles: 173542675 heartbeat IPC: 0.416278 cumulative IPC: 0.481251 (Simulation time: 1 hr 6 min 38 sec) 
Heartbeat CPU 0 instructions: 93000003 cycles: 175943126 heartbeat IPC: 0.41659 cumulative IPC: 0.480353 (Simulation time: 1 hr 7 min 31 sec) 
Heartbeat CPU 0 instructions: 94000000 cycles: 178347484 heartbeat IPC: 0.41591 cumulative IPC: 0.479468 (Simulation time: 1 hr 8 min 19 sec) 
Heartbeat CPU 0 instructions: 95000002 cycles: 180758092 heartbeat IPC: 0.414834 cumulative IPC: 0.478591 (Simulation time: 1 hr 9 min 0 sec) 
Heartbeat CPU 0 instructions: 96000000 cycles: 183179052 heartbeat IPC: 0.413058 cumulative IPC: 0.47771 (Simulation time: 1 hr 9 min 42 sec) 
Heartbeat CPU 0 instructions: 97000001 cycles: 185602385 heartbeat IPC: 0.412655 cumulative IPC: 0.476846 (Simulation time: 1 hr 10 min 26 sec) 
Heartbeat CPU 0 instructions: 98000002 cycles: 188025458 heartbeat IPC: 0.412699 cumulative IPC: 0.476005 (Simulation time: 1 hr 11 min 4 sec) 
Heartbeat CPU 0 instructions: 99000002 cycles: 189637698 heartbeat IPC: 0.620255 cumulative IPC: 0.477252 (Simulation time: 1 hr 11 min 40 sec) 
Heartbeat CPU 0 instructions: 100000000 cycles: 191081822 heartbeat IPC: 0.69246 cumulative IPC: 0.478906 (Simulation time: 1 hr 12 min 12 sec) 
Heartbeat CPU 0 instructions: 101000000 cycles: 192514253 heartbeat IPC: 0.698114 cumulative IPC: 0.480564 (Simulation time: 1 hr 12 min 44 sec) 
Heartbeat CPU 0 instructions: 102000003 cycles: 193946306 heartbeat IPC: 0.6983 cumulative IPC: 0.482198 (Simulation time: 1 hr 13 min 11 sec) 
Heartbeat CPU 0 instructions: 103000002 cycles: 195378777 heartbeat IPC: 0.698094 cumulative IPC: 0.483807 (Simulation time: 1 hr 13 min 38 sec) 
Heartbeat CPU 0 instructions: 104000000 cycles: 196799914 heartbeat IPC: 0.703661 cumulative IPC: 0.485421 (Simulation time: 1 hr 14 min 5 sec) 
Heartbeat CPU 0 instructions: 105000000 cycles: 198219788 heartbeat IPC: 0.704288 cumulative IPC: 0.487014 (Simulation time: 1 hr 14 min 31 sec) 
Heartbeat CPU 0 instructions: 106000001 cycles: 199646255 heartbeat IPC: 0.701033 cumulative IPC: 0.488568 (Simulation time: 1 hr 14 min 57 sec) 
Heartbeat CPU 0 instructions: 107000000 cycles: 201073117 heartbeat IPC: 0.700838 cumulative IPC: 0.490098 (Simulation time: 1 hr 15 min 21 sec) 
Heartbeat CPU 0 instructions: 108000000 cycles: 202499782 heartbeat IPC: 0.700935 cumulative IPC: 0.491607 (Simulation time: 1 hr 15 min 46 sec) 
Heartbeat CPU 0 instructions: 109000001 cycles: 203925126 heartbeat IPC: 0.701586 cumulative IPC: 0.493097 (Simulation time: 1 hr 16 min 10 sec) 
Heartbeat CPU 0 instructions: 110000000 cycles: 205353407 heartbeat IPC: 0.700142 cumulative IPC: 0.49456 (Simulation time: 1 hr 16 min 33 sec) 
Finished CPU 0 instructions: 100000001 cycles: 202199957 cummulative IPC: 0.49456 (Simulation time: 1 hr 16 min 33 sec) 

ChampSim completed all CPUs

Region of Interest Statistics

CPU 0 cummulative IPC: 0.49456 instructions: 100000001 cycles: 202199957
LLC TOTAL     ACCESS:    4047262  HIT:     198634  MISS:    3848628
LLC LOAD      ACCESS:     834786  HIT:      17150  MISS:     817636
LLC RFO       ACCESS:         24  HIT:          8  MISS:         16
LLC PREFETCH  ACCESS:    2172016  HIT:      88445  MISS:    2083571
LLC WRITEBACK ACCESS:    1040436  HIT:      93031  MISS:     947405
