
*** ChampSim Multicore Out-of-Order Simulator ***

Warmup Instructions: 10000000
Simulation Instructions: 100000000
Configuration: 2
Number of CPUs: 1
LLC sets: 2048
LLC ways: 16
Off-chip DRAM Channels: 1 Width: 64-bit Data Rate: 1600 MT/s

CPU 0 runs /datasets/cs240c-wi22-a00-public/data/Assignment2-gz/leslie3d_94B.trace.gz
CPU 0 L1D next line prefetcher
CPU 0 L2C IP-based stride prefetcher
Heartbeat CPU 0 instructions: 1000003 cycles: 597056 heartbeat IPC: 1.67489 cumulative IPC: 1.67489 (Simulation time: 0 hr 0 min 40 sec) 
Heartbeat CPU 0 instructions: 2000002 cycles: 1215973 heartbeat IPC: 1.61572 cumulative IPC: 1.64478 (Simulation time: 0 hr 1 min 23 sec) 
Heartbeat CPU 0 instructions: 3000002 cycles: 1867808 heartbeat IPC: 1.53413 cumulative IPC: 1.60616 (Simulation time: 0 hr 2 min 6 sec) 
Heartbeat CPU 0 instructions: 4000000 cycles: 2519116 heartbeat IPC: 1.53537 cumulative IPC: 1.58786 (Simulation time: 0 hr 2 min 49 sec) 
Heartbeat CPU 0 instructions: 5000002 cycles: 3084120 heartbeat IPC: 1.7699 cumulative IPC: 1.62121 (Simulation time: 0 hr 3 min 31 sec) 
Heartbeat CPU 0 instructions: 6000002 cycles: 3734763 heartbeat IPC: 1.53694 cumulative IPC: 1.60653 (Simulation time: 0 hr 4 min 15 sec) 
Heartbeat CPU 0 instructions: 7000000 cycles: 4385459 heartbeat IPC: 1.53681 cumulative IPC: 1.59618 (Simulation time: 0 hr 4 min 59 sec) 
Heartbeat CPU 0 instructions: 8000000 cycles: 4950467 heartbeat IPC: 1.76989 cumulative IPC: 1.61601 (Simulation time: 0 hr 5 min 44 sec) 
Heartbeat CPU 0 instructions: 9000000 cycles: 5601345 heartbeat IPC: 1.53639 cumulative IPC: 1.60676 (Simulation time: 0 hr 6 min 31 sec) 
Heartbeat CPU 0 instructions: 10000001 cycles: 6252560 heartbeat IPC: 1.53559 cumulative IPC: 1.59935 (Simulation time: 0 hr 7 min 14 sec) 

Warmup complete CPU 0 instructions: 10000001 cycles: 6252560 (Simulation time: 0 hr 7 min 14 sec) 

Heartbeat CPU 0 instructions: 11000000 cycles: 7489765 heartbeat IPC: 0.808273 cumulative IPC: 0.808273 (Simulation time: 0 hr 8 min 0 sec) 
Heartbeat CPU 0 instructions: 12000000 cycles: 9229453 heartbeat IPC: 0.574816 cumulative IPC: 0.671841 (Simulation time: 0 hr 8 min 46 sec) 
Heartbeat CPU 0 instructions: 13000000 cycles: 11170465 heartbeat IPC: 0.515195 cumulative IPC: 0.610016 (Simulation time: 0 hr 9 min 38 sec) 
Heartbeat CPU 0 instructions: 14000001 cycles: 13225466 heartbeat IPC: 0.486618 cumulative IPC: 0.573649 (Simulation time: 0 hr 10 min 27 sec) 
Heartbeat CPU 0 instructions: 15000001 cycles: 15317872 heartbeat IPC: 0.477919 cumulative IPC: 0.551553 (Simulation time: 0 hr 11 min 17 sec) 
Heartbeat CPU 0 instructions: 16000000 cycles: 17395319 heartbeat IPC: 0.48136 cumulative IPC: 0.538466 (Simulation time: 0 hr 12 min 5 sec) 
Heartbeat CPU 0 instructions: 17000000 cycles: 19393256 heartbeat IPC: 0.500516 cumulative IPC: 0.532696 (Simulation time: 0 hr 12 min 54 sec) 
Heartbeat CPU 0 instructions: 18000002 cycles: 21402501 heartbeat IPC: 0.4977 cumulative IPC: 0.528055 (Simulation time: 0 hr 13 min 40 sec) 
Heartbeat CPU 0 instructions: 19000001 cycles: 23439224 heartbeat IPC: 0.490984 cumulative IPC: 0.523662 (Simulation time: 0 hr 14 min 30 sec) 
Heartbeat CPU 0 instructions: 20000000 cycles: 25468283 heartbeat IPC: 0.492839 cumulative IPC: 0.520407 (Simulation time: 0 hr 15 min 22 sec) 
Heartbeat CPU 0 instructions: 21000002 cycles: 27459045 heartbeat IPC: 0.502321 cumulative IPC: 0.518709 (Simulation time: 0 hr 16 min 11 sec) 
Heartbeat CPU 0 instructions: 22000002 cycles: 29928223 heartbeat IPC: 0.404993 cumulative IPC: 0.50685 (Simulation time: 0 hr 17 min 9 sec) 
Heartbeat CPU 0 instructions: 23000000 cycles: 32371650 heartbeat IPC: 0.40926 cumulative IPC: 0.49772 (Simulation time: 0 hr 18 min 4 sec) 
Heartbeat CPU 0 instructions: 24000000 cycles: 34814372 heartbeat IPC: 0.409379 cumulative IPC: 0.490165 (Simulation time: 0 hr 19 min 3 sec) 
Heartbeat CPU 0 instructions: 25000000 cycles: 37234799 heartbeat IPC: 0.41315 cumulative IPC: 0.484148 (Simulation time: 0 hr 19 min 59 sec) 
Heartbeat CPU 0 instructions: 26000002 cycles: 39522230 heartbeat IPC: 0.437173 cumulative IPC: 0.480919 (Simulation time: 0 hr 21 min 2 sec) 
Heartbeat CPU 0 instructions: 27000001 cycles: 41863094 heartbeat IPC: 0.427192 cumulative IPC: 0.477387 (Simulation time: 0 hr 22 min 1 sec) 
Heartbeat CPU 0 instructions: 28000000 cycles: 44243093 heartbeat IPC: 0.420168 cumulative IPC: 0.473802 (Simulation time: 0 hr 23 min 2 sec) 
Heartbeat CPU 0 instructions: 29000000 cycles: 46609921 heartbeat IPC: 0.422506 cumulative IPC: 0.470794 (Simulation time: 0 hr 24 min 3 sec) 
Heartbeat CPU 0 instructions: 30000000 cycles: 48036455 heartbeat IPC: 0.701 cumulative IPC: 0.478653 (Simulation time: 0 hr 24 min 53 sec) 
Heartbeat CPU 0 instructions: 31000002 cycles: 49375873 heartbeat IPC: 0.746594 cumulative IPC: 0.486976 (Simulation time: 0 hr 25 min 45 sec) 
Heartbeat CPU 0 instructions: 32000000 cycles: 50734269 heartbeat IPC: 0.736161 cumulative IPC: 0.494585 (Simulation time: 0 hr 26 min 35 sec) 
Heartbeat CPU 0 instructions: 33000001 cycles: 52072886 heartbeat IPC: 0.74704 cumulative IPC: 0.501961 (Simulation time: 0 hr 27 min 27 sec) 
Heartbeat CPU 0 instructions: 34000003 cycles: 53431952 heartbeat IPC: 0.735801 cumulative IPC: 0.508697 (Simulation time: 0 hr 28 min 18 sec) 
Heartbeat CPU 0 instructions: 35000000 cycles: 54764308 heartbeat IPC: 0.750548 cumulative IPC: 0.515339 (Simulation time: 0 hr 29 min 12 sec) 
Heartbeat CPU 0 instructions: 36000000 cycles: 56148412 heartbeat IPC: 0.722489 cumulative IPC: 0.521085 (Simulation time: 0 hr 30 min 5 sec) 
Heartbeat CPU 0 instructions: 37000003 cycles: 57501464 heartbeat IPC: 0.739072 cumulative IPC: 0.526841 (Simulation time: 0 hr 30 min 57 sec) 
Heartbeat CPU 0 instructions: 38000000 cycles: 58852424 heartbeat IPC: 0.740212 cumulative IPC: 0.532321 (Simulation time: 0 hr 31 min 49 sec) 
Heartbeat CPU 0 instructions: 39000001 cycles: 60202381 heartbeat IPC: 0.740765 cumulative IPC: 0.537537 (Simulation time: 0 hr 32 min 40 sec) 
Heartbeat CPU 0 instructions: 40000000 cycles: 61517460 heartbeat IPC: 0.76041 cumulative IPC: 0.54284 (Simulation time: 0 hr 33 min 32 sec) 
Heartbeat CPU 0 instructions: 41000002 cycles: 62883197 heartbeat IPC: 0.732207 cumulative IPC: 0.547407 (Simulation time: 0 hr 34 min 22 sec) 
Heartbeat CPU 0 instructions: 42000002 cycles: 64220430 heartbeat IPC: 0.747813 cumulative IPC: 0.55203 (Simulation time: 0 hr 35 min 14 sec) 
Heartbeat CPU 0 instructions: 43000002 cycles: 65592223 heartbeat IPC: 0.728973 cumulative IPC: 0.55612 (Simulation time: 0 hr 36 min 5 sec) 
Heartbeat CPU 0 instructions: 44000000 cycles: 66928804 heartbeat IPC: 0.748176 cumulative IPC: 0.560351 (Simulation time: 0 hr 36 min 59 sec) 
Heartbeat CPU 0 instructions: 45000003 cycles: 68291635 heartbeat IPC: 0.733769 cumulative IPC: 0.564161 (Simulation time: 0 hr 37 min 51 sec) 
Heartbeat CPU 0 instructions: 46000001 cycles: 69690933 heartbeat IPC: 0.714643 cumulative IPC: 0.56748 (Simulation time: 0 hr 38 min 45 sec) 
Heartbeat CPU 0 instructions: 47000000 cycles: 71028145 heartbeat IPC: 0.747824 cumulative IPC: 0.571203 (Simulation time: 0 hr 39 min 37 sec) 
Heartbeat CPU 0 instructions: 48000000 cycles: 72412490 heartbeat IPC: 0.722363 cumulative IPC: 0.574366 (Simulation time: 0 hr 40 min 30 sec) 
Heartbeat CPU 0 instructions: 49000001 cycles: 73744782 heartbeat IPC: 0.750587 cumulative IPC: 0.577844 (Simulation time: 0 hr 41 min 22 sec) 
Heartbeat CPU 0 instructions: 50000001 cycles: 75102236 heartbeat IPC: 0.736673 cumulative IPC: 0.580976 (Simulation time: 0 hr 42 min 16 sec) 
Heartbeat CPU 0 instructions: 51000003 cycles: 76428297 heartbeat IPC: 0.754115 cumulative IPC: 0.584248 (Simulation time: 0 hr 43 min 11 sec) 
Heartbeat CPU 0 instructions: 52000000 cycles: 77741297 heartbeat IPC: 0.761612 cumulative IPC: 0.587505 (Simulation time: 0 hr 44 min 6 sec) 
Heartbeat CPU 0 instructions: 53000002 cycles: 79112047 heartbeat IPC: 0.729529 cumulative IPC: 0.590177 (Simulation time: 0 hr 45 min 2 sec) 
Heartbeat CPU 0 instructions: 54000001 cycles: 80430546 heartbeat IPC: 0.758437 cumulative IPC: 0.593168 (Simulation time: 0 hr 45 min 52 sec) 
Heartbeat CPU 0 instructions: 55000000 cycles: 81798764 heartbeat IPC: 0.730877 cumulative IPC: 0.595662 (Simulation time: 0 hr 46 min 42 sec) 
Heartbeat CPU 0 instructions: 56000000 cycles: 83138310 heartbeat IPC: 0.746522 cumulative IPC: 0.59829 (Simulation time: 0 hr 47 min 31 sec) 
Heartbeat CPU 0 instructions: 57000000 cycles: 84503554 heartbeat IPC: 0.73247 cumulative IPC: 0.600631 (Simulation time: 0 hr 48 min 17 sec) 
Heartbeat CPU 0 instructions: 58000001 cycles: 85850297 heartbeat IPC: 0.742533 cumulative IPC: 0.603032 (Simulation time: 0 hr 49 min 3 sec) 
Heartbeat CPU 0 instructions: 59000003 cycles: 87162464 heartbeat IPC: 0.7621 cumulative IPC: 0.605612 (Simulation time: 0 hr 49 min 49 sec) 
Heartbeat CPU 0 instructions: 60000000 cycles: 88520691 heartbeat IPC: 0.736252 cumulative IPC: 0.607769 (Simulation time: 0 hr 50 min 34 sec) 
Heartbeat CPU 0 instructions: 61000001 cycles: 89855575 heartbeat IPC: 0.74913 cumulative IPC: 0.610026 (Simulation time: 0 hr 51 min 25 sec) 
Heartbeat CPU 0 instructions: 62000002 cycles: 91199512 heartbeat IPC: 0.744083 cumulative IPC: 0.612147 (Simulation time: 0 hr 52 min 18 sec) 
Heartbeat CPU 0 instructions: 63000000 cycles: 92529205 heartbeat IPC: 0.752052 cumulative IPC: 0.614303 (Simulation time: 0 hr 53 min 5 sec) 
Heartbeat CPU 0 instructions: 64000000 cycles: 93882214 heartbeat IPC: 0.739093 cumulative IPC: 0.61623 (Simulation time: 0 hr 53 min 46 sec) 
Heartbeat CPU 0 instructions: 65000000 cycles: 95242958 heartbeat IPC: 0.734892 cumulative IPC: 0.618044 (Simulation time: 0 hr 54 min 29 sec) 
Heartbeat CPU 0 instructions: 66000000 cycles: 96603614 heartbeat IPC: 0.73494 cumulative IPC: 0.619805 (Simulation time: 0 hr 55 min 16 sec) 
Heartbeat CPU 0 instructions: 67000003 cycles: 97963950 heartbeat IPC: 0.735115 cumulative IPC: 0.621515 (Simulation time: 0 hr 56 min 0 sec) 
Heartbeat CPU 0 instructions: 68000000 cycles: 99312269 heartbeat IPC: 0.741662 cumulative IPC: 0.623256 (Simulation time: 0 hr 56 min 42 sec) 
Heartbeat CPU 0 instructions: 69000000 cycles: 100655026 heartbeat IPC: 0.744736 cumulative IPC: 0.624984 (Simulation time: 0 hr 57 min 22 sec) 
Heartbeat CPU 0 instructions: 70000001 cycles: 101991577 heartbeat IPC: 0.748195 cumulative IPC: 0.626704 (Simulation time: 0 hr 58 min 1 sec) 
Heartbeat CPU 0 instructions: 71000002 cycles: 103351227 heartbeat IPC: 0.735484 cumulative IPC: 0.628227 (Simulation time: 0 hr 58 min 45 sec) 
Heartbeat CPU 0 instructions: 72000000 cycles: 104686467 heartbeat IPC: 0.748928 cumulative IPC: 0.629864 (Simulation time: 0 hr 59 min 32 sec) 
Heartbeat CPU 0 instructions: 73000000 cycles: 106037662 heartbeat IPC: 0.740086 cumulative IPC: 0.631357 (Simulation time: 1 hr 0 min 21 sec) 
Heartbeat CPU 0 instructions: 74000000 cycles: 107369496 heartbeat IPC: 0.750844 cumulative IPC: 0.632931 (Simulation time: 1 hr 1 min 4 sec) 
Heartbeat CPU 0 instructions: 75000002 cycles: 108696691 heartbeat IPC: 0.75347 cumulative IPC: 0.634492 (Simulation time: 1 hr 1 min 42 sec) 
Heartbeat CPU 0 instructions: 76000000 cycles: 110052517 heartbeat IPC: 0.737556 cumulative IPC: 0.635838 (Simulation time: 1 hr 2 min 19 sec) 
Heartbeat CPU 0 instructions: 77000000 cycles: 111380483 heartbeat IPC: 0.753031 cumulative IPC: 0.637319 (Simulation time: 1 hr 3 min 1 sec) 
Heartbeat CPU 0 instructions: 78000003 cycles: 112765294 heartbeat IPC: 0.722122 cumulative IPC: 0.638421 (Simulation time: 1 hr 3 min 35 sec) 
Heartbeat CPU 0 instructions: 79000000 cycles: 114255446 heartbeat IPC: 0.67107 cumulative IPC: 0.638872 (Simulation time: 1 hr 4 min 12 sec) 
Heartbeat CPU 0 instructions: 80000000 cycles: 115855011 heartbeat IPC: 0.62517 cumulative IPC: 0.638672 (Simulation time: 1 hr 4 min 45 sec) 
Heartbeat CPU 0 instructions: 81000002 cycles: 117440913 heartbeat IPC: 0.630557 cumulative IPC: 0.638556 (Simulation time: 1 hr 5 min 16 sec) 
Heartbeat CPU 0 instructions: 82000003 cycles: 119104741 heartbeat IPC: 0.601024 cumulative IPC: 0.638003 (Simulation time: 1 hr 5 min 51 sec) 
Heartbeat CPU 0 instructions: 83000000 cycles: 120779479 heartbeat IPC: 0.597107 cumulative IPC: 0.637405 (Simulation time: 1 hr 6 min 25 sec) 
Heartbeat CPU 0 instructions: 84000000 cycles: 122405457 heartbeat IPC: 0.615014 cumulative IPC: 0.637091 (Simulation time: 1 hr 7 min 3 sec) 
Heartbeat CPU 0 instructions: 85000001 cycles: 124064765 heartbeat IPC: 0.602661 cumulative IPC: 0.636606 (Simulation time: 1 hr 7 min 41 sec) 
Heartbeat CPU 0 instructions: 86000002 cycles: 125695481 heartbeat IPC: 0.613228 cumulative IPC: 0.636287 (Simulation time: 1 hr 8 min 21 sec) 
Heartbeat CPU 0 instructions: 87000000 cycles: 127346939 heartbeat IPC: 0.605524 cumulative IPC: 0.635868 (Simulation time: 1 hr 8 min 56 sec) 
Heartbeat CPU 0 instructions: 88000000 cycles: 129012770 heartbeat IPC: 0.600301 cumulative IPC: 0.635385 (Simulation time: 1 hr 9 min 31 sec) 
Heartbeat CPU 0 instructions: 89000002 cycles: 130644292 heartbeat IPC: 0.612926 cumulative IPC: 0.63509 (Simulation time: 1 hr 10 min 4 sec) 
Heartbeat CPU 0 instructions: 90000001 cycles: 132288587 heartbeat IPC: 0.608163 cumulative IPC: 0.634739 (Simulation time: 1 hr 10 min 37 sec) 
Heartbeat CPU 0 instructions: 91000003 cycles: 133934248 heartbeat IPC: 0.60766 cumulative IPC: 0.63439 (Simulation time: 1 hr 11 min 10 sec) 
Heartbeat CPU 0 instructions: 92000000 cycles: 135587192 heartbeat IPC: 0.604979 cumulative IPC: 0.634014 (Simulation time: 1 hr 11 min 41 sec) 
Heartbeat CPU 0 instructions: 93000001 cycles: 137272052 heartbeat IPC: 0.593522 cumulative IPC: 0.633494 (Simulation time: 1 hr 12 min 13 sec) 
Heartbeat CPU 0 instructions: 94000003 cycles: 138927926 heartbeat IPC: 0.603912 cumulative IPC: 0.633124 (Simulation time: 1 hr 12 min 43 sec) 
Heartbeat CPU 0 instructions: 95000002 cycles: 140630294 heartbeat IPC: 0.587416 cumulative IPC: 0.632545 (Simulation time: 1 hr 13 min 14 sec) 
Heartbeat CPU 0 instructions: 96000000 cycles: 142283747 heartbeat IPC: 0.604794 cumulative IPC: 0.632208 (Simulation time: 1 hr 13 min 43 sec) 
Heartbeat CPU 0 instructions: 97000003 cycles: 144300013 heartbeat IPC: 0.495968 cumulative IPC: 0.630218 (Simulation time: 1 hr 14 min 17 sec) 
Heartbeat CPU 0 instructions: 98000002 cycles: 150036685 heartbeat IPC: 0.174317 cumulative IPC: 0.612029 (Simulation time: 1 hr 15 min 18 sec) 
Heartbeat CPU 0 instructions: 99000000 cycles: 153197963 heartbeat IPC: 0.316327 cumulative IPC: 0.605667 (Simulation time: 1 hr 16 min 5 sec) 
Heartbeat CPU 0 instructions: 100000000 cycles: 154810201 heartbeat IPC: 0.620256 cumulative IPC: 0.605825 (Simulation time: 1 hr 16 min 30 sec) 
Heartbeat CPU 0 instructions: 101000002 cycles: 156076371 heartbeat IPC: 0.789785 cumulative IPC: 0.60738 (Simulation time: 1 hr 16 min 49 sec) 
Heartbeat CPU 0 instructions: 102000003 cycles: 157476389 heartbeat IPC: 0.714277 cumulative IPC: 0.60837 (Simulation time: 1 hr 17 min 12 sec) 
Heartbeat CPU 0 instructions: 103000002 cycles: 158936192 heartbeat IPC: 0.685023 cumulative IPC: 0.609103 (Simulation time: 1 hr 17 min 32 sec) 
Heartbeat CPU 0 instructions: 104000000 cycles: 160412172 heartbeat IPC: 0.677515 cumulative IPC: 0.609758 (Simulation time: 1 hr 17 min 53 sec) 
Heartbeat CPU 0 instructions: 105000001 cycles: 161945957 heartbeat IPC: 0.651982 cumulative IPC: 0.610174 (Simulation time: 1 hr 18 min 13 sec) 
Heartbeat CPU 0 instructions: 106000001 cycles: 163486673 heartbeat IPC: 0.649049 cumulative IPC: 0.610555 (Simulation time: 1 hr 18 min 31 sec) 
Heartbeat CPU 0 instructions: 107000003 cycles: 165011100 heartbeat IPC: 0.655985 cumulative IPC: 0.610991 (Simulation time: 1 hr 18 min 50 sec) 
Heartbeat CPU 0 instructions: 108000000 cycles: 166549217 heartbeat IPC: 0.650144 cumulative IPC: 0.611366 (Simulation time: 1 hr 19 min 8 sec) 
Heartbeat CPU 0 instructions: 109000001 cycles: 168059284 heartbeat IPC: 0.662223 cumulative IPC: 0.611841 (Simulation time: 1 hr 19 min 26 sec) 
Heartbeat CPU 0 instructions: 110000001 cycles: 169577263 heartbeat IPC: 0.658771 cumulative IPC: 0.612277 (Simulation time: 1 hr 19 min 43 sec) 
Finished CPU 0 instructions: 100000000 cycles: 163324703 cummulative IPC: 0.612277 (Simulation time: 1 hr 19 min 43 sec) 

ChampSim completed all CPUs

Region of Interest Statistics

CPU 0 cummulative IPC: 0.612277 instructions: 100000000 cycles: 163324703
LLC TOTAL     ACCESS:    4606971  HIT:    1142861  MISS:    3464110
LLC LOAD      ACCESS:     464870  HIT:      59300  MISS:     405570
LLC RFO       ACCESS:     743697  HIT:      96338  MISS:     647359
LLC PREFETCH  ACCESS:    2298626  HIT:     150983  MISS:    2147643
LLC WRITEBACK ACCESS:    1099778  HIT:     836240  MISS:     263538
