
*** ChampSim Multicore Out-of-Order Simulator ***

Warmup Instructions: 10000000
Simulation Instructions: 100000000
Configuration: 2
Number of CPUs: 1
LLC sets: 2048
LLC ways: 16
Off-chip DRAM Channels: 1 Width: 64-bit Data Rate: 1600 MT/s

CPU 0 runs /datasets/cs240c-wi22-a00-public/data/Assignment2-gz/cactusADM_734B.trace.gz
CPU 0 L1D next line prefetcher
CPU 0 L2C IP-based stride prefetcher
Heartbeat CPU 0 instructions: 1000003 cycles: 592726 heartbeat IPC: 1.68713 cumulative IPC: 1.68713 (Simulation time: 0 hr 0 min 58 sec) 
Heartbeat CPU 0 instructions: 2000001 cycles: 1185927 heartbeat IPC: 1.68577 cumulative IPC: 1.68645 (Simulation time: 0 hr 2 min 1 sec) 
Heartbeat CPU 0 instructions: 3000003 cycles: 1778979 heartbeat IPC: 1.6862 cumulative IPC: 1.68636 (Simulation time: 0 hr 3 min 6 sec) 
Heartbeat CPU 0 instructions: 4000000 cycles: 2371929 heartbeat IPC: 1.68648 cumulative IPC: 1.68639 (Simulation time: 0 hr 4 min 9 sec) 
Heartbeat CPU 0 instructions: 5000000 cycles: 2965279 heartbeat IPC: 1.68535 cumulative IPC: 1.68618 (Simulation time: 0 hr 5 min 6 sec) 
Heartbeat CPU 0 instructions: 6000002 cycles: 3558551 heartbeat IPC: 1.68557 cumulative IPC: 1.68608 (Simulation time: 0 hr 5 min 56 sec) 
Heartbeat CPU 0 instructions: 7000000 cycles: 4151394 heartbeat IPC: 1.68678 cumulative IPC: 1.68618 (Simulation time: 0 hr 6 min 48 sec) 
Heartbeat CPU 0 instructions: 8000000 cycles: 4744343 heartbeat IPC: 1.68649 cumulative IPC: 1.68622 (Simulation time: 0 hr 7 min 41 sec) 
Heartbeat CPU 0 instructions: 9000001 cycles: 5337493 heartbeat IPC: 1.68592 cumulative IPC: 1.68619 (Simulation time: 0 hr 8 min 30 sec) 
Heartbeat CPU 0 instructions: 10000003 cycles: 5958967 heartbeat IPC: 1.60908 cumulative IPC: 1.67814 (Simulation time: 0 hr 9 min 18 sec) 

Warmup complete CPU 0 instructions: 10000003 cycles: 5958967 (Simulation time: 0 hr 9 min 18 sec) 

Heartbeat CPU 0 instructions: 11000002 cycles: 12560137 heartbeat IPC: 0.151488 cumulative IPC: 0.151488 (Simulation time: 0 hr 10 min 23 sec) 
Heartbeat CPU 0 instructions: 12000000 cycles: 14302410 heartbeat IPC: 0.573962 cumulative IPC: 0.239709 (Simulation time: 0 hr 11 min 16 sec) 
Heartbeat CPU 0 instructions: 13000002 cycles: 15990183 heartbeat IPC: 0.592498 cumulative IPC: 0.299066 (Simulation time: 0 hr 12 min 10 sec) 
Heartbeat CPU 0 instructions: 14000000 cycles: 17675720 heartbeat IPC: 0.593282 cumulative IPC: 0.341391 (Simulation time: 0 hr 12 min 59 sec) 
Heartbeat CPU 0 instructions: 15000003 cycles: 19415381 heartbeat IPC: 0.574826 cumulative IPC: 0.37157 (Simulation time: 0 hr 13 min 52 sec) 
Heartbeat CPU 0 instructions: 16000000 cycles: 21157943 heartbeat IPC: 0.573866 cumulative IPC: 0.394763 (Simulation time: 0 hr 14 min 44 sec) 
Heartbeat CPU 0 instructions: 17000002 cycles: 22892119 heartbeat IPC: 0.576644 cumulative IPC: 0.41339 (Simulation time: 0 hr 15 min 35 sec) 
Heartbeat CPU 0 instructions: 18000001 cycles: 24550198 heartbeat IPC: 0.603107 cumulative IPC: 0.43031 (Simulation time: 0 hr 16 min 31 sec) 
Heartbeat CPU 0 instructions: 19000000 cycles: 26267148 heartbeat IPC: 0.582428 cumulative IPC: 0.443171 (Simulation time: 0 hr 17 min 27 sec) 
Heartbeat CPU 0 instructions: 20000000 cycles: 28010017 heartbeat IPC: 0.573767 cumulative IPC: 0.453493 (Simulation time: 0 hr 18 min 25 sec) 
Heartbeat CPU 0 instructions: 21000002 cycles: 29753478 heartbeat IPC: 0.573573 cumulative IPC: 0.462291 (Simulation time: 0 hr 19 min 21 sec) 
Heartbeat CPU 0 instructions: 22000000 cycles: 31462722 heartbeat IPC: 0.585053 cumulative IPC: 0.470519 (Simulation time: 0 hr 20 min 17 sec) 
Heartbeat CPU 0 instructions: 23000001 cycles: 33127018 heartbeat IPC: 0.600855 cumulative IPC: 0.478503 (Simulation time: 0 hr 21 min 14 sec) 
Heartbeat CPU 0 instructions: 24000000 cycles: 40800630 heartbeat IPC: 0.130317 cumulative IPC: 0.401818 (Simulation time: 0 hr 22 min 23 sec) 
Heartbeat CPU 0 instructions: 25000000 cycles: 42541999 heartbeat IPC: 0.574261 cumulative IPC: 0.410026 (Simulation time: 0 hr 23 min 18 sec) 
Heartbeat CPU 0 instructions: 26000002 cycles: 44276653 heartbeat IPC: 0.576485 cumulative IPC: 0.417562 (Simulation time: 0 hr 24 min 15 sec) 
Heartbeat CPU 0 instructions: 27000002 cycles: 45940477 heartbeat IPC: 0.601025 cumulative IPC: 0.425197 (Simulation time: 0 hr 25 min 11 sec) 
Heartbeat CPU 0 instructions: 28000000 cycles: 47666432 heartbeat IPC: 0.579388 cumulative IPC: 0.431577 (Simulation time: 0 hr 26 min 8 sec) 
Heartbeat CPU 0 instructions: 29000001 cycles: 49425619 heartbeat IPC: 0.568445 cumulative IPC: 0.437117 (Simulation time: 0 hr 27 min 6 sec) 
Heartbeat CPU 0 instructions: 30000001 cycles: 51167872 heartbeat IPC: 0.573969 cumulative IPC: 0.442391 (Simulation time: 0 hr 28 min 2 sec) 
Heartbeat CPU 0 instructions: 31000003 cycles: 52880702 heartbeat IPC: 0.58383 cumulative IPC: 0.447554 (Simulation time: 0 hr 28 min 57 sec) 
Heartbeat CPU 0 instructions: 32000000 cycles: 54539352 heartbeat IPC: 0.602898 cumulative IPC: 0.452858 (Simulation time: 0 hr 29 min 53 sec) 
Heartbeat CPU 0 instructions: 33000000 cycles: 56274597 heartbeat IPC: 0.576288 cumulative IPC: 0.457114 (Simulation time: 0 hr 30 min 47 sec) 
Heartbeat CPU 0 instructions: 34000001 cycles: 58018832 heartbeat IPC: 0.573318 cumulative IPC: 0.461008 (Simulation time: 0 hr 31 min 45 sec) 
Heartbeat CPU 0 instructions: 35000000 cycles: 59756997 heartbeat IPC: 0.575319 cumulative IPC: 0.464701 (Simulation time: 0 hr 32 min 41 sec) 
Heartbeat CPU 0 instructions: 36000000 cycles: 61440079 heartbeat IPC: 0.594148 cumulative IPC: 0.468628 (Simulation time: 0 hr 33 min 38 sec) 
Heartbeat CPU 0 instructions: 37000003 cycles: 69057057 heartbeat IPC: 0.131286 cumulative IPC: 0.427905 (Simulation time: 0 hr 34 min 49 sec) 
Heartbeat CPU 0 instructions: 38000001 cycles: 70798272 heartbeat IPC: 0.57431 cumulative IPC: 0.431837 (Simulation time: 0 hr 35 min 45 sec) 
Heartbeat CPU 0 instructions: 39000001 cycles: 72539135 heartbeat IPC: 0.574428 cumulative IPC: 0.435565 (Simulation time: 0 hr 36 min 42 sec) 
Heartbeat CPU 0 instructions: 40000000 cycles: 74256824 heartbeat IPC: 0.582177 cumulative IPC: 0.439252 (Simulation time: 0 hr 37 min 38 sec) 
Heartbeat CPU 0 instructions: 41000001 cycles: 75912264 heartbeat IPC: 0.60407 cumulative IPC: 0.443153 (Simulation time: 0 hr 38 min 34 sec) 
Heartbeat CPU 0 instructions: 42000002 cycles: 77648257 heartbeat IPC: 0.57604 cumulative IPC: 0.446371 (Simulation time: 0 hr 39 min 31 sec) 
Heartbeat CPU 0 instructions: 43000000 cycles: 79389624 heartbeat IPC: 0.57426 cumulative IPC: 0.449404 (Simulation time: 0 hr 40 min 26 sec) 
Heartbeat CPU 0 instructions: 44000000 cycles: 81129914 heartbeat IPC: 0.574617 cumulative IPC: 0.452302 (Simulation time: 0 hr 41 min 23 sec) 
Heartbeat CPU 0 instructions: 45000000 cycles: 82815503 heartbeat IPC: 0.593264 cumulative IPC: 0.455394 (Simulation time: 0 hr 42 min 28 sec) 
Heartbeat CPU 0 instructions: 46000003 cycles: 84498987 heartbeat IPC: 0.594008 cumulative IPC: 0.458365 (Simulation time: 0 hr 43 min 25 sec) 
Heartbeat CPU 0 instructions: 47000001 cycles: 86237395 heartbeat IPC: 0.575238 cumulative IPC: 0.460896 (Simulation time: 0 hr 44 min 19 sec) 
Heartbeat CPU 0 instructions: 48000000 cycles: 87978576 heartbeat IPC: 0.574322 cumulative IPC: 0.463304 (Simulation time: 0 hr 45 min 11 sec) 
Heartbeat CPU 0 instructions: 49000000 cycles: 89715084 heartbeat IPC: 0.575868 cumulative IPC: 0.465638 (Simulation time: 0 hr 46 min 8 sec) 
Heartbeat CPU 0 instructions: 50000001 cycles: 97241714 heartbeat IPC: 0.132862 cumulative IPC: 0.438199 (Simulation time: 0 hr 47 min 17 sec) 
Heartbeat CPU 0 instructions: 51000000 cycles: 98972354 heartbeat IPC: 0.57782 cumulative IPC: 0.440797 (Simulation time: 0 hr 48 min 12 sec) 
Heartbeat CPU 0 instructions: 52000000 cycles: 100712538 heartbeat IPC: 0.574652 cumulative IPC: 0.443255 (Simulation time: 0 hr 49 min 9 sec) 
Heartbeat CPU 0 instructions: 53000003 cycles: 102451990 heartbeat IPC: 0.574895 cumulative IPC: 0.445628 (Simulation time: 0 hr 50 min 2 sec) 
Heartbeat CPU 0 instructions: 54000000 cycles: 104140329 heartbeat IPC: 0.592296 cumulative IPC: 0.44815 (Simulation time: 0 hr 50 min 56 sec) 
Heartbeat CPU 0 instructions: 55000001 cycles: 105817327 heartbeat IPC: 0.596304 cumulative IPC: 0.450638 (Simulation time: 0 hr 51 min 51 sec) 
Heartbeat CPU 0 instructions: 56000000 cycles: 107569348 heartbeat IPC: 0.570769 cumulative IPC: 0.45271 (Simulation time: 0 hr 52 min 45 sec) 
Heartbeat CPU 0 instructions: 57000000 cycles: 109318618 heartbeat IPC: 0.571667 cumulative IPC: 0.454723 (Simulation time: 0 hr 53 min 50 sec) 
Heartbeat CPU 0 instructions: 58000001 cycles: 111052895 heartbeat IPC: 0.57661 cumulative IPC: 0.456734 (Simulation time: 0 hr 54 min 44 sec) 
Heartbeat CPU 0 instructions: 59000000 cycles: 112711416 heartbeat IPC: 0.602946 cumulative IPC: 0.459006 (Simulation time: 0 hr 55 min 42 sec) 
Heartbeat CPU 0 instructions: 60000000 cycles: 114417958 heartbeat IPC: 0.58598 cumulative IPC: 0.461004 (Simulation time: 0 hr 56 min 37 sec) 
Heartbeat CPU 0 instructions: 61000002 cycles: 116157279 heartbeat IPC: 0.574938 cumulative IPC: 0.462802 (Simulation time: 0 hr 57 min 35 sec) 
Heartbeat CPU 0 instructions: 62000002 cycles: 117897199 heartbeat IPC: 0.574739 cumulative IPC: 0.464542 (Simulation time: 0 hr 58 min 28 sec) 
Heartbeat CPU 0 instructions: 63000002 cycles: 125348575 heartbeat IPC: 0.134203 cumulative IPC: 0.443925 (Simulation time: 0 hr 59 min 32 sec) 
Heartbeat CPU 0 instructions: 64000000 cycles: 127301926 heartbeat IPC: 0.51194 cumulative IPC: 0.44502 (Simulation time: 1 hr 0 min 29 sec) 
Heartbeat CPU 0 instructions: 65000003 cycles: 129038506 heartbeat IPC: 0.575846 cumulative IPC: 0.446865 (Simulation time: 1 hr 1 min 20 sec) 
Heartbeat CPU 0 instructions: 66000001 cycles: 130779657 heartbeat IPC: 0.574332 cumulative IPC: 0.448644 (Simulation time: 1 hr 2 min 7 sec) 
Heartbeat CPU 0 instructions: 67000000 cycles: 132516277 heartbeat IPC: 0.575831 cumulative IPC: 0.450389 (Simulation time: 1 hr 2 min 52 sec) 
Heartbeat CPU 0 instructions: 68000000 cycles: 134179607 heartbeat IPC: 0.601204 cumulative IPC: 0.452345 (Simulation time: 1 hr 3 min 31 sec) 
Heartbeat CPU 0 instructions: 69000000 cycles: 135880827 heartbeat IPC: 0.587813 cumulative IPC: 0.454119 (Simulation time: 1 hr 4 min 11 sec) 
Heartbeat CPU 0 instructions: 70000001 cycles: 137621987 heartbeat IPC: 0.57433 cumulative IPC: 0.455709 (Simulation time: 1 hr 4 min 54 sec) 
Heartbeat CPU 0 instructions: 71000001 cycles: 139364145 heartbeat IPC: 0.574001 cumulative IPC: 0.457254 (Simulation time: 1 hr 5 min 39 sec) 
Heartbeat CPU 0 instructions: 72000000 cycles: 141085403 heartbeat IPC: 0.58097 cumulative IPC: 0.45883 (Simulation time: 1 hr 6 min 18 sec) 
Heartbeat CPU 0 instructions: 73000003 cycles: 142734978 heartbeat IPC: 0.606219 cumulative IPC: 0.460607 (Simulation time: 1 hr 7 min 9 sec) 
Heartbeat CPU 0 instructions: 74000002 cycles: 144467895 heartbeat IPC: 0.577061 cumulative IPC: 0.462064 (Simulation time: 1 hr 8 min 0 sec) 
Heartbeat CPU 0 instructions: 75000002 cycles: 146208446 heartbeat IPC: 0.574531 cumulative IPC: 0.46346 (Simulation time: 1 hr 8 min 45 sec) 
Heartbeat CPU 0 instructions: 76000000 cycles: 152450314 heartbeat IPC: 0.160208 cumulative IPC: 0.450539 (Simulation time: 1 hr 9 min 39 sec) 
Heartbeat CPU 0 instructions: 77000000 cycles: 155645273 heartbeat IPC: 0.312993 cumulative IPC: 0.447603 (Simulation time: 1 hr 10 min 28 sec) 
Heartbeat CPU 0 instructions: 78000002 cycles: 157342734 heartbeat IPC: 0.589116 cumulative IPC: 0.44919 (Simulation time: 1 hr 11 min 12 sec) 
Heartbeat CPU 0 instructions: 79000002 cycles: 159084611 heartbeat IPC: 0.574093 cumulative IPC: 0.45061 (Simulation time: 1 hr 11 min 55 sec) 
Heartbeat CPU 0 instructions: 80000000 cycles: 160823950 heartbeat IPC: 0.57493 cumulative IPC: 0.452007 (Simulation time: 1 hr 12 min 33 sec) 
Heartbeat CPU 0 instructions: 81000000 cycles: 162552505 heartbeat IPC: 0.578518 cumulative IPC: 0.453403 (Simulation time: 1 hr 13 min 11 sec) 
Heartbeat CPU 0 instructions: 82000003 cycles: 164198934 heartbeat IPC: 0.607377 cumulative IPC: 0.455005 (Simulation time: 1 hr 13 min 48 sec) 
Heartbeat CPU 0 instructions: 83000003 cycles: 165930218 heartbeat IPC: 0.577606 cumulative IPC: 0.456332 (Simulation time: 1 hr 14 min 23 sec) 
Heartbeat CPU 0 instructions: 84000000 cycles: 167669891 heartbeat IPC: 0.574819 cumulative IPC: 0.457607 (Simulation time: 1 hr 14 min 57 sec) 
Heartbeat CPU 0 instructions: 85000003 cycles: 169409710 heartbeat IPC: 0.574774 cumulative IPC: 0.458854 (Simulation time: 1 hr 15 min 31 sec) 
Heartbeat CPU 0 instructions: 86000000 cycles: 171104948 heartbeat IPC: 0.589886 cumulative IPC: 0.460199 (Simulation time: 1 hr 16 min 6 sec) 
Heartbeat CPU 0 instructions: 87000000 cycles: 172779540 heartbeat IPC: 0.59716 cumulative IPC: 0.461574 (Simulation time: 1 hr 16 min 38 sec) 
Heartbeat CPU 0 instructions: 88000000 cycles: 174546338 heartbeat IPC: 0.565996 cumulative IPC: 0.462668 (Simulation time: 1 hr 17 min 6 sec) 
Heartbeat CPU 0 instructions: 89000002 cycles: 179703655 heartbeat IPC: 0.1939 cumulative IPC: 0.45469 (Simulation time: 1 hr 17 min 36 sec) 
Heartbeat CPU 0 instructions: 90000002 cycles: 184000211 heartbeat IPC: 0.232745 cumulative IPC: 0.449334 (Simulation time: 1 hr 18 min 5 sec) 
Heartbeat CPU 0 instructions: 91000003 cycles: 185649610 heartbeat IPC: 0.606282 cumulative IPC: 0.450775 (Simulation time: 1 hr 18 min 35 sec) 
Heartbeat CPU 0 instructions: 92000000 cycles: 187378173 heartbeat IPC: 0.578514 cumulative IPC: 0.451992 (Simulation time: 1 hr 19 min 4 sec) 
Heartbeat CPU 0 instructions: 93000000 cycles: 189119647 heartbeat IPC: 0.574226 cumulative IPC: 0.453154 (Simulation time: 1 hr 19 min 34 sec) 
Heartbeat CPU 0 instructions: 94000003 cycles: 190862714 heartbeat IPC: 0.573703 cumulative IPC: 0.45429 (Simulation time: 1 hr 20 min 3 sec) 
Heartbeat CPU 0 instructions: 95000000 cycles: 192563857 heartbeat IPC: 0.587838 cumulative IPC: 0.455508 (Simulation time: 1 hr 20 min 31 sec) 
Heartbeat CPU 0 instructions: 96000000 cycles: 194235284 heartbeat IPC: 0.598291 cumulative IPC: 0.456775 (Simulation time: 1 hr 21 min 1 sec) 
Heartbeat CPU 0 instructions: 97000001 cycles: 195972312 heartbeat IPC: 0.575697 cumulative IPC: 0.457863 (Simulation time: 1 hr 21 min 27 sec) 
Heartbeat CPU 0 instructions: 98000000 cycles: 197714403 heartbeat IPC: 0.574022 cumulative IPC: 0.458918 (Simulation time: 1 hr 21 min 51 sec) 
Heartbeat CPU 0 instructions: 99000001 cycles: 199453917 heartbeat IPC: 0.574874 cumulative IPC: 0.45996 (Simulation time: 1 hr 22 min 13 sec) 
Heartbeat CPU 0 instructions: 100000000 cycles: 201124075 heartbeat IPC: 0.598745 cumulative IPC: 0.461148 (Simulation time: 1 hr 22 min 31 sec) 
Heartbeat CPU 0 instructions: 101000000 cycles: 202826343 heartbeat IPC: 0.587452 cumulative IPC: 0.46224 (Simulation time: 1 hr 22 min 48 sec) 
Heartbeat CPU 0 instructions: 102000002 cycles: 206872984 heartbeat IPC: 0.247119 cumulative IPC: 0.457907 (Simulation time: 1 hr 23 min 3 sec) 
Heartbeat CPU 0 instructions: 103000000 cycles: 212260872 heartbeat IPC: 0.185601 cumulative IPC: 0.450796 (Simulation time: 1 hr 23 min 18 sec) 
Heartbeat CPU 0 instructions: 104000000 cycles: 213966185 heartbeat IPC: 0.586403 cumulative IPC: 0.451907 (Simulation time: 1 hr 23 min 29 sec) 
Heartbeat CPU 0 instructions: 105000000 cycles: 215631064 heartbeat IPC: 0.600644 cumulative IPC: 0.453088 (Simulation time: 1 hr 23 min 40 sec) 
Heartbeat CPU 0 instructions: 106000002 cycles: 217364960 heartbeat IPC: 0.576737 cumulative IPC: 0.454103 (Simulation time: 1 hr 23 min 50 sec) 
Heartbeat CPU 0 instructions: 107000001 cycles: 219106233 heartbeat IPC: 0.574292 cumulative IPC: 0.455084 (Simulation time: 1 hr 23 min 59 sec) 
Heartbeat CPU 0 instructions: 108000000 cycles: 220843080 heartbeat IPC: 0.575755 cumulative IPC: 0.45606 (Simulation time: 1 hr 24 min 7 sec) 
Heartbeat CPU 0 instructions: 109000001 cycles: 222517090 heartbeat IPC: 0.597369 cumulative IPC: 0.457152 (Simulation time: 1 hr 24 min 15 sec) 
Heartbeat CPU 0 instructions: 110000003 cycles: 224212020 heartbeat IPC: 0.589996 cumulative IPC: 0.458184 (Simulation time: 1 hr 24 min 21 sec) 
Finished CPU 0 instructions: 100000000 cycles: 218253053 cummulative IPC: 0.458184 (Simulation time: 1 hr 24 min 21 sec) 

ChampSim completed all CPUs

Region of Interest Statistics

CPU 0 cummulative IPC: 0.458184 instructions: 100000000 cycles: 218253053
LLC TOTAL     ACCESS:    1167471  HIT:     338829  MISS:     828642
LLC LOAD      ACCESS:      25891  HIT:       1137  MISS:      24754
LLC RFO       ACCESS:     264086  HIT:       1869  MISS:     262217
LLC PREFETCH  ACCESS:     611386  HIT:     115406  MISS:     495980
LLC WRITEBACK ACCESS:     266108  HIT:     220417  MISS:      45691
