
*** ChampSim Multicore Out-of-Order Simulator ***

Warmup Instructions: 10000000
Simulation Instructions: 100000000
Configuration: 2
Number of CPUs: 1
LLC sets: 2048
LLC ways: 16
Off-chip DRAM Channels: 1 Width: 64-bit Data Rate: 1600 MT/s

CPU 0 runs /datasets/cs240c-wi22-a00-public/data/Assignment2-gz/lbm_1004B.trace.gz
CPU 0 L1D next line prefetcher
CPU 0 L2C IP-based stride prefetcher
Heartbeat CPU 0 instructions: 1000002 cycles: 391414 heartbeat IPC: 2.55484 cumulative IPC: 2.55484 (Simulation time: 0 hr 0 min 34 sec) 
Heartbeat CPU 0 instructions: 2000001 cycles: 782838 heartbeat IPC: 2.55477 cumulative IPC: 2.55481 (Simulation time: 0 hr 1 min 7 sec) 
Heartbeat CPU 0 instructions: 3000001 cycles: 1174187 heartbeat IPC: 2.55526 cumulative IPC: 2.55496 (Simulation time: 0 hr 1 min 40 sec) 
Heartbeat CPU 0 instructions: 4000000 cycles: 1570381 heartbeat IPC: 2.52401 cumulative IPC: 2.54715 (Simulation time: 0 hr 2 min 16 sec) 
Heartbeat CPU 0 instructions: 5000002 cycles: 1961799 heartbeat IPC: 2.55482 cumulative IPC: 2.54868 (Simulation time: 0 hr 2 min 50 sec) 
Heartbeat CPU 0 instructions: 6000002 cycles: 2353167 heartbeat IPC: 2.55514 cumulative IPC: 2.54976 (Simulation time: 0 hr 3 min 25 sec) 
Heartbeat CPU 0 instructions: 7000003 cycles: 2749275 heartbeat IPC: 2.52457 cumulative IPC: 2.54613 (Simulation time: 0 hr 4 min 2 sec) 
Heartbeat CPU 0 instructions: 8000000 cycles: 3140638 heartbeat IPC: 2.55516 cumulative IPC: 2.54725 (Simulation time: 0 hr 4 min 36 sec) 
Heartbeat CPU 0 instructions: 9000003 cycles: 3532079 heartbeat IPC: 2.55467 cumulative IPC: 2.54808 (Simulation time: 0 hr 5 min 12 sec) 
Heartbeat CPU 0 instructions: 10000000 cycles: 3923448 heartbeat IPC: 2.55513 cumulative IPC: 2.54878 (Simulation time: 0 hr 5 min 44 sec) 

Warmup complete CPU 0 instructions: 10000004 cycles: 3923449 (Simulation time: 0 hr 5 min 44 sec) 

Heartbeat CPU 0 instructions: 11000002 cycles: 5439957 heartbeat IPC: 0.659411 cumulative IPC: 0.659408 (Simulation time: 0 hr 6 min 24 sec) 
Heartbeat CPU 0 instructions: 12000000 cycles: 6830913 heartbeat IPC: 0.718929 cumulative IPC: 0.687883 (Simulation time: 0 hr 7 min 1 sec) 
Heartbeat CPU 0 instructions: 13000002 cycles: 8195374 heartbeat IPC: 0.732892 cumulative IPC: 0.702259 (Simulation time: 0 hr 7 min 44 sec) 
Heartbeat CPU 0 instructions: 14000003 cycles: 9666388 heartbeat IPC: 0.679804 cumulative IPC: 0.696507 (Simulation time: 0 hr 8 min 23 sec) 
Heartbeat CPU 0 instructions: 15000003 cycles: 11044704 heartbeat IPC: 0.725523 cumulative IPC: 0.702123 (Simulation time: 0 hr 9 min 4 sec) 
Heartbeat CPU 0 instructions: 16000000 cycles: 12331591 heartbeat IPC: 0.777067 cumulative IPC: 0.713594 (Simulation time: 0 hr 9 min 42 sec) 
Heartbeat CPU 0 instructions: 17000000 cycles: 13809542 heartbeat IPC: 0.676612 cumulative IPC: 0.708065 (Simulation time: 0 hr 10 min 21 sec) 
Heartbeat CPU 0 instructions: 18000002 cycles: 15256596 heartbeat IPC: 0.691061 cumulative IPC: 0.705894 (Simulation time: 0 hr 10 min 59 sec) 
Heartbeat CPU 0 instructions: 19000002 cycles: 16664983 heartbeat IPC: 0.710032 cumulative IPC: 0.706351 (Simulation time: 0 hr 11 min 39 sec) 
Heartbeat CPU 0 instructions: 20000000 cycles: 18044211 heartbeat IPC: 0.725042 cumulative IPC: 0.708177 (Simulation time: 0 hr 12 min 23 sec) 
Heartbeat CPU 0 instructions: 21000003 cycles: 19428680 heartbeat IPC: 0.722301 cumulative IPC: 0.709438 (Simulation time: 0 hr 13 min 2 sec) 
Heartbeat CPU 0 instructions: 22000002 cycles: 20777209 heartbeat IPC: 0.741548 cumulative IPC: 0.712007 (Simulation time: 0 hr 13 min 40 sec) 
Heartbeat CPU 0 instructions: 23000001 cycles: 22127627 heartbeat IPC: 0.740511 cumulative IPC: 0.714122 (Simulation time: 0 hr 14 min 21 sec) 
Heartbeat CPU 0 instructions: 24000000 cycles: 23515930 heartbeat IPC: 0.720303 cumulative IPC: 0.71456 (Simulation time: 0 hr 15 min 2 sec) 
Heartbeat CPU 0 instructions: 25000003 cycles: 24909432 heartbeat IPC: 0.717619 cumulative IPC: 0.714763 (Simulation time: 0 hr 15 min 43 sec) 
Heartbeat CPU 0 instructions: 26000003 cycles: 26236223 heartbeat IPC: 0.753698 cumulative IPC: 0.717078 (Simulation time: 0 hr 16 min 24 sec) 
Heartbeat CPU 0 instructions: 27000001 cycles: 27556922 heartbeat IPC: 0.757173 cumulative IPC: 0.719319 (Simulation time: 0 hr 17 min 5 sec) 
Heartbeat CPU 0 instructions: 28000000 cycles: 28958674 heartbeat IPC: 0.713392 cumulative IPC: 0.718987 (Simulation time: 0 hr 17 min 48 sec) 
Heartbeat CPU 0 instructions: 29000002 cycles: 30348608 heartbeat IPC: 0.71946 cumulative IPC: 0.719012 (Simulation time: 0 hr 18 min 32 sec) 
Heartbeat CPU 0 instructions: 30000003 cycles: 31758176 heartbeat IPC: 0.709438 cumulative IPC: 0.718527 (Simulation time: 0 hr 19 min 14 sec) 
Heartbeat CPU 0 instructions: 31000001 cycles: 33120416 heartbeat IPC: 0.734084 cumulative IPC: 0.719253 (Simulation time: 0 hr 19 min 57 sec) 
Heartbeat CPU 0 instructions: 32000000 cycles: 34445081 heartbeat IPC: 0.754907 cumulative IPC: 0.7208 (Simulation time: 0 hr 20 min 40 sec) 
Heartbeat CPU 0 instructions: 33000000 cycles: 35833862 heartbeat IPC: 0.720056 cumulative IPC: 0.720768 (Simulation time: 0 hr 21 min 24 sec) 
Heartbeat CPU 0 instructions: 34000002 cycles: 37329468 heartbeat IPC: 0.668627 cumulative IPC: 0.718433 (Simulation time: 0 hr 22 min 18 sec) 
Heartbeat CPU 0 instructions: 35000001 cycles: 38681329 heartbeat IPC: 0.73972 cumulative IPC: 0.719261 (Simulation time: 0 hr 23 min 12 sec) 
Heartbeat CPU 0 instructions: 36000000 cycles: 40047384 heartbeat IPC: 0.732034 cumulative IPC: 0.719744 (Simulation time: 0 hr 24 min 5 sec) 
Heartbeat CPU 0 instructions: 37000002 cycles: 41400858 heartbeat IPC: 0.738841 cumulative IPC: 0.720434 (Simulation time: 0 hr 25 min 1 sec) 
Heartbeat CPU 0 instructions: 38000000 cycles: 42822985 heartbeat IPC: 0.703171 cumulative IPC: 0.719803 (Simulation time: 0 hr 26 min 4 sec) 
Heartbeat CPU 0 instructions: 39000003 cycles: 44175787 heartbeat IPC: 0.739209 cumulative IPC: 0.720455 (Simulation time: 0 hr 27 min 5 sec) 
Heartbeat CPU 0 instructions: 40000000 cycles: 45511559 heartbeat IPC: 0.748628 cumulative IPC: 0.72136 (Simulation time: 0 hr 28 min 4 sec) 
Heartbeat CPU 0 instructions: 41000002 cycles: 46925412 heartbeat IPC: 0.707289 cumulative IPC: 0.720897 (Simulation time: 0 hr 29 min 3 sec) 
Heartbeat CPU 0 instructions: 42000000 cycles: 48330263 heartbeat IPC: 0.711818 cumulative IPC: 0.72061 (Simulation time: 0 hr 30 min 5 sec) 
Heartbeat CPU 0 instructions: 43000002 cycles: 49670577 heartbeat IPC: 0.746095 cumulative IPC: 0.721357 (Simulation time: 0 hr 31 min 2 sec) 
Heartbeat CPU 0 instructions: 44000000 cycles: 51098878 heartbeat IPC: 0.700131 cumulative IPC: 0.720714 (Simulation time: 0 hr 31 min 54 sec) 
Heartbeat CPU 0 instructions: 45000000 cycles: 52459177 heartbeat IPC: 0.735133 cumulative IPC: 0.721118 (Simulation time: 0 hr 32 min 44 sec) 
Heartbeat CPU 0 instructions: 46000003 cycles: 53799904 heartbeat IPC: 0.745866 cumulative IPC: 0.721783 (Simulation time: 0 hr 33 min 32 sec) 
Heartbeat CPU 0 instructions: 47000002 cycles: 55155118 heartbeat IPC: 0.73789 cumulative IPC: 0.72221 (Simulation time: 0 hr 34 min 18 sec) 
Heartbeat CPU 0 instructions: 48000000 cycles: 56568967 heartbeat IPC: 0.707288 cumulative IPC: 0.721809 (Simulation time: 0 hr 35 min 14 sec) 
Heartbeat CPU 0 instructions: 49000000 cycles: 57933765 heartbeat IPC: 0.732709 cumulative IPC: 0.722084 (Simulation time: 0 hr 36 min 2 sec) 
Heartbeat CPU 0 instructions: 50000003 cycles: 59240905 heartbeat IPC: 0.765031 cumulative IPC: 0.723099 (Simulation time: 0 hr 36 min 47 sec) 
Heartbeat CPU 0 instructions: 51000001 cycles: 60584952 heartbeat IPC: 0.74402 cumulative IPC: 0.723595 (Simulation time: 0 hr 37 min 34 sec) 
Heartbeat CPU 0 instructions: 52000000 cycles: 61924751 heartbeat IPC: 0.74638 cumulative IPC: 0.724122 (Simulation time: 0 hr 38 min 17 sec) 
Heartbeat CPU 0 instructions: 53000002 cycles: 63303229 heartbeat IPC: 0.725439 cumulative IPC: 0.724152 (Simulation time: 0 hr 39 min 4 sec) 
Heartbeat CPU 0 instructions: 54000002 cycles: 64720876 heartbeat IPC: 0.705394 cumulative IPC: 0.723715 (Simulation time: 0 hr 39 min 54 sec) 
Heartbeat CPU 0 instructions: 55000001 cycles: 66131584 heartbeat IPC: 0.708863 cumulative IPC: 0.723378 (Simulation time: 0 hr 40 min 41 sec) 
Heartbeat CPU 0 instructions: 56000000 cycles: 67503007 heartbeat IPC: 0.729169 cumulative IPC: 0.723503 (Simulation time: 0 hr 41 min 32 sec) 
Heartbeat CPU 0 instructions: 57000003 cycles: 68808142 heartbeat IPC: 0.766207 cumulative IPC: 0.724362 (Simulation time: 0 hr 42 min 29 sec) 
Heartbeat CPU 0 instructions: 58000003 cycles: 70207451 heartbeat IPC: 0.714638 cumulative IPC: 0.724157 (Simulation time: 0 hr 43 min 28 sec) 
Heartbeat CPU 0 instructions: 59000002 cycles: 71587354 heartbeat IPC: 0.724688 cumulative IPC: 0.724167 (Simulation time: 0 hr 44 min 23 sec) 
Heartbeat CPU 0 instructions: 60000000 cycles: 72979333 heartbeat IPC: 0.7184 cumulative IPC: 0.724051 (Simulation time: 0 hr 45 min 29 sec) 
Heartbeat CPU 0 instructions: 61000003 cycles: 74393167 heartbeat IPC: 0.707299 cumulative IPC: 0.723715 (Simulation time: 0 hr 46 min 35 sec) 
Heartbeat CPU 0 instructions: 62000001 cycles: 75747596 heartbeat IPC: 0.738317 cumulative IPC: 0.72399 (Simulation time: 0 hr 47 min 42 sec) 
Heartbeat CPU 0 instructions: 63000001 cycles: 77073963 heartbeat IPC: 0.753939 cumulative IPC: 0.724533 (Simulation time: 0 hr 48 min 40 sec) 
Heartbeat CPU 0 instructions: 64000000 cycles: 78376180 heartbeat IPC: 0.76792 cumulative IPC: 0.725292 (Simulation time: 0 hr 49 min 41 sec) 
Heartbeat CPU 0 instructions: 65000000 cycles: 79805410 heartbeat IPC: 0.699677 cumulative IPC: 0.72481 (Simulation time: 0 hr 50 min 43 sec) 
Heartbeat CPU 0 instructions: 66000000 cycles: 81171401 heartbeat IPC: 0.732069 cumulative IPC: 0.724938 (Simulation time: 0 hr 51 min 51 sec) 
Heartbeat CPU 0 instructions: 67000000 cycles: 82483925 heartbeat IPC: 0.761891 cumulative IPC: 0.725556 (Simulation time: 0 hr 52 min 52 sec) 
Heartbeat CPU 0 instructions: 68000000 cycles: 83874856 heartbeat IPC: 0.718943 cumulative IPC: 0.725441 (Simulation time: 0 hr 53 min 54 sec) 
Heartbeat CPU 0 instructions: 69000000 cycles: 85262157 heartbeat IPC: 0.720824 cumulative IPC: 0.725362 (Simulation time: 0 hr 54 min 55 sec) 
Heartbeat CPU 0 instructions: 70000000 cycles: 86615989 heartbeat IPC: 0.738644 cumulative IPC: 0.725579 (Simulation time: 0 hr 55 min 53 sec) 
Heartbeat CPU 0 instructions: 71000002 cycles: 87990034 heartbeat IPC: 0.72778 cumulative IPC: 0.725615 (Simulation time: 0 hr 56 min 53 sec) 
Heartbeat CPU 0 instructions: 72000000 cycles: 90187061 heartbeat IPC: 0.45516 cumulative IPC: 0.718727 (Simulation time: 0 hr 58 min 15 sec) 
Heartbeat CPU 0 instructions: 73000000 cycles: 93228392 heartbeat IPC: 0.328803 cumulative IPC: 0.705448 (Simulation time: 0 hr 59 min 48 sec) 
Heartbeat CPU 0 instructions: 74000002 cycles: 99634411 heartbeat IPC: 0.156104 cumulative IPC: 0.66868 (Simulation time: 1 hr 2 min 15 sec) 
Heartbeat CPU 0 instructions: 75000003 cycles: 101697288 heartbeat IPC: 0.48476 cumulative IPC: 0.6648 (Simulation time: 1 hr 3 min 15 sec) 
Heartbeat CPU 0 instructions: 76000000 cycles: 103535261 heartbeat IPC: 0.544076 cumulative IPC: 0.662572 (Simulation time: 1 hr 3 min 57 sec) 
Heartbeat CPU 0 instructions: 77000000 cycles: 105003399 heartbeat IPC: 0.681135 cumulative IPC: 0.662842 (Simulation time: 1 hr 4 min 34 sec) 
Heartbeat CPU 0 instructions: 78000002 cycles: 106362535 heartbeat IPC: 0.735763 cumulative IPC: 0.663809 (Simulation time: 1 hr 5 min 11 sec) 
Heartbeat CPU 0 instructions: 79000000 cycles: 107816065 heartbeat IPC: 0.687979 cumulative IPC: 0.664147 (Simulation time: 1 hr 5 min 46 sec) 
Heartbeat CPU 0 instructions: 80000000 cycles: 109180458 heartbeat IPC: 0.732927 cumulative IPC: 0.665039 (Simulation time: 1 hr 6 min 16 sec) 
Heartbeat CPU 0 instructions: 81000001 cycles: 110491300 heartbeat IPC: 0.762869 cumulative IPC: 0.666242 (Simulation time: 1 hr 6 min 58 sec) 
Heartbeat CPU 0 instructions: 82000002 cycles: 111907874 heartbeat IPC: 0.705929 cumulative IPC: 0.666763 (Simulation time: 1 hr 7 min 41 sec) 
Heartbeat CPU 0 instructions: 83000003 cycles: 113384610 heartbeat IPC: 0.67717 cumulative IPC: 0.666903 (Simulation time: 1 hr 8 min 24 sec) 
Heartbeat CPU 0 instructions: 84000000 cycles: 114699757 heartbeat IPC: 0.760369 cumulative IPC: 0.668013 (Simulation time: 1 hr 9 min 2 sec) 
Heartbeat CPU 0 instructions: 85000000 cycles: 116008017 heartbeat IPC: 0.764374 cumulative IPC: 0.669138 (Simulation time: 1 hr 9 min 40 sec) 
Heartbeat CPU 0 instructions: 86000000 cycles: 117491138 heartbeat IPC: 0.674254 cumulative IPC: 0.669204 (Simulation time: 1 hr 10 min 20 sec) 
Heartbeat CPU 0 instructions: 87000002 cycles: 118837509 heartbeat IPC: 0.742739 cumulative IPC: 0.670066 (Simulation time: 1 hr 10 min 59 sec) 
Heartbeat CPU 0 instructions: 88000000 cycles: 120124561 heartbeat IPC: 0.776968 cumulative IPC: 0.67125 (Simulation time: 1 hr 11 min 35 sec) 
Heartbeat CPU 0 instructions: 89000003 cycles: 121467039 heartbeat IPC: 0.744893 cumulative IPC: 0.672091 (Simulation time: 1 hr 12 min 11 sec) 
Heartbeat CPU 0 instructions: 90000002 cycles: 122873067 heartbeat IPC: 0.711223 cumulative IPC: 0.672554 (Simulation time: 1 hr 12 min 44 sec) 
Heartbeat CPU 0 instructions: 91000001 cycles: 124176170 heartbeat IPC: 0.767398 cumulative IPC: 0.673581 (Simulation time: 1 hr 13 min 16 sec) 
Heartbeat CPU 0 instructions: 92000000 cycles: 125544013 heartbeat IPC: 0.731077 cumulative IPC: 0.674228 (Simulation time: 1 hr 13 min 48 sec) 
Heartbeat CPU 0 instructions: 93000003 cycles: 126957526 heartbeat IPC: 0.707459 cumulative IPC: 0.67461 (Simulation time: 1 hr 14 min 19 sec) 
Heartbeat CPU 0 instructions: 94000003 cycles: 128285979 heartbeat IPC: 0.752755 cumulative IPC: 0.675445 (Simulation time: 1 hr 14 min 47 sec) 
Heartbeat CPU 0 instructions: 95000000 cycles: 129631029 heartbeat IPC: 0.743465 cumulative IPC: 0.676172 (Simulation time: 1 hr 15 min 16 sec) 
Heartbeat CPU 0 instructions: 96000000 cycles: 131003811 heartbeat IPC: 0.728448 cumulative IPC: 0.676737 (Simulation time: 1 hr 15 min 44 sec) 
Heartbeat CPU 0 instructions: 97000002 cycles: 132354171 heartbeat IPC: 0.740545 cumulative IPC: 0.677408 (Simulation time: 1 hr 16 min 14 sec) 
Heartbeat CPU 0 instructions: 98000001 cycles: 133748173 heartbeat IPC: 0.717358 cumulative IPC: 0.677837 (Simulation time: 1 hr 16 min 41 sec) 
Heartbeat CPU 0 instructions: 99000000 cycles: 135123399 heartbeat IPC: 0.727152 cumulative IPC: 0.678354 (Simulation time: 1 hr 17 min 5 sec) 
Heartbeat CPU 0 instructions: 100000000 cycles: 136551908 heartbeat IPC: 0.700031 cumulative IPC: 0.678587 (Simulation time: 1 hr 17 min 30 sec) 
Heartbeat CPU 0 instructions: 101000000 cycles: 137914360 heartbeat IPC: 0.733971 cumulative IPC: 0.679151 (Simulation time: 1 hr 17 min 52 sec) 
Heartbeat CPU 0 instructions: 102000000 cycles: 139251634 heartbeat IPC: 0.74779 cumulative IPC: 0.679829 (Simulation time: 1 hr 18 min 13 sec) 
Heartbeat CPU 0 instructions: 103000001 cycles: 140676678 heartbeat IPC: 0.701733 cumulative IPC: 0.680057 (Simulation time: 1 hr 18 min 34 sec) 
Heartbeat CPU 0 instructions: 104000000 cycles: 142043675 heartbeat IPC: 0.73153 cumulative IPC: 0.680566 (Simulation time: 1 hr 18 min 56 sec) 
Heartbeat CPU 0 instructions: 105000001 cycles: 143380713 heartbeat IPC: 0.747923 cumulative IPC: 0.681212 (Simulation time: 1 hr 19 min 16 sec) 
Heartbeat CPU 0 instructions: 106000000 cycles: 144770654 heartbeat IPC: 0.719454 cumulative IPC: 0.68159 (Simulation time: 1 hr 19 min 37 sec) 
Heartbeat CPU 0 instructions: 107000000 cycles: 146223200 heartbeat IPC: 0.688446 cumulative IPC: 0.68166 (Simulation time: 1 hr 19 min 57 sec) 
Heartbeat CPU 0 instructions: 108000000 cycles: 147593071 heartbeat IPC: 0.729996 cumulative IPC: 0.682121 (Simulation time: 1 hr 20 min 17 sec) 
Heartbeat CPU 0 instructions: 109000003 cycles: 148929514 heartbeat IPC: 0.748257 cumulative IPC: 0.68273 (Simulation time: 1 hr 20 min 36 sec) 
Heartbeat CPU 0 instructions: 110000001 cycles: 150357396 heartbeat IPC: 0.700337 cumulative IPC: 0.682902 (Simulation time: 1 hr 20 min 54 sec) 
Finished CPU 0 instructions: 100000001 cycles: 146433948 cummulative IPC: 0.682902 (Simulation time: 1 hr 20 min 54 sec) 

ChampSim completed all CPUs

Region of Interest Statistics

CPU 0 cummulative IPC: 0.682902 instructions: 100000001 cycles: 146433948
LLC TOTAL     ACCESS:    5792002  HIT:    1614834  MISS:    4177168
LLC LOAD      ACCESS:     415747  HIT:         15  MISS:     415732
LLC RFO       ACCESS:    2473109  HIT:     511156  MISS:    1961953
LLC PREFETCH  ACCESS:     430013  HIT:          3  MISS:     430010
LLC WRITEBACK ACCESS:    2473133  HIT:    1103660  MISS:    1369473
