
*** ChampSim Multicore Out-of-Order Simulator ***

Warmup Instructions: 10000000
Simulation Instructions: 100000000
Configuration: 2
Number of CPUs: 1
LLC sets: 2048
LLC ways: 16
Off-chip DRAM Channels: 1 Width: 64-bit Data Rate: 1600 MT/s

CPU 0 runs /datasets/cs240c-wi22-a00-public/data/Assignment2-gz/gcc_56B.trace.gz
CPU 0 L1D next line prefetcher
CPU 0 L2C IP-based stride prefetcher
Heartbeat CPU 0 instructions: 1000003 cycles: 954147 heartbeat IPC: 1.04806 cumulative IPC: 1.04806 (Simulation time: 0 hr 0 min 50 sec) 
Heartbeat CPU 0 instructions: 2000001 cycles: 1898356 heartbeat IPC: 1.05909 cumulative IPC: 1.05354 (Simulation time: 0 hr 1 min 41 sec) 
Heartbeat CPU 0 instructions: 3000001 cycles: 2885603 heartbeat IPC: 1.01292 cumulative IPC: 1.03964 (Simulation time: 0 hr 2 min 28 sec) 
Heartbeat CPU 0 instructions: 4000000 cycles: 3848224 heartbeat IPC: 1.03883 cumulative IPC: 1.03944 (Simulation time: 0 hr 3 min 14 sec) 
Heartbeat CPU 0 instructions: 5000002 cycles: 4737714 heartbeat IPC: 1.12424 cumulative IPC: 1.05536 (Simulation time: 0 hr 4 min 1 sec) 
Heartbeat CPU 0 instructions: 6000000 cycles: 5685681 heartbeat IPC: 1.05489 cumulative IPC: 1.05528 (Simulation time: 0 hr 4 min 49 sec) 
Heartbeat CPU 0 instructions: 7000000 cycles: 6649937 heartbeat IPC: 1.03707 cumulative IPC: 1.05264 (Simulation time: 0 hr 5 min 34 sec) 
Heartbeat CPU 0 instructions: 8000000 cycles: 7611172 heartbeat IPC: 1.04033 cumulative IPC: 1.05109 (Simulation time: 0 hr 6 min 18 sec) 
Heartbeat CPU 0 instructions: 9000000 cycles: 8622657 heartbeat IPC: 0.988645 cumulative IPC: 1.04376 (Simulation time: 0 hr 7 min 5 sec) 
Heartbeat CPU 0 instructions: 10000002 cycles: 9583180 heartbeat IPC: 1.0411 cumulative IPC: 1.0435 (Simulation time: 0 hr 7 min 48 sec) 

Warmup complete CPU 0 instructions: 10000002 cycles: 9583180 (Simulation time: 0 hr 7 min 48 sec) 

Heartbeat CPU 0 instructions: 11000000 cycles: 10945820 heartbeat IPC: 0.733868 cumulative IPC: 0.733868 (Simulation time: 0 hr 8 min 34 sec) 
Heartbeat CPU 0 instructions: 12000000 cycles: 12384876 heartbeat IPC: 0.6949 cumulative IPC: 0.713853 (Simulation time: 0 hr 9 min 21 sec) 
Heartbeat CPU 0 instructions: 13000001 cycles: 13781082 heartbeat IPC: 0.716227 cumulative IPC: 0.714642 (Simulation time: 0 hr 10 min 9 sec) 
Heartbeat CPU 0 instructions: 14000000 cycles: 15125934 heartbeat IPC: 0.743576 cumulative IPC: 0.721663 (Simulation time: 0 hr 10 min 58 sec) 
Heartbeat CPU 0 instructions: 15000003 cycles: 16512858 heartbeat IPC: 0.721022 cumulative IPC: 0.721534 (Simulation time: 0 hr 11 min 46 sec) 
Heartbeat CPU 0 instructions: 16000000 cycles: 17850774 heartbeat IPC: 0.747429 cumulative IPC: 0.725725 (Simulation time: 0 hr 12 min 35 sec) 
Heartbeat CPU 0 instructions: 17000001 cycles: 19183852 heartbeat IPC: 0.750144 cumulative IPC: 0.729116 (Simulation time: 0 hr 13 min 20 sec) 
Heartbeat CPU 0 instructions: 18000000 cycles: 20585409 heartbeat IPC: 0.713491 cumulative IPC: 0.727125 (Simulation time: 0 hr 14 min 6 sec) 
Heartbeat CPU 0 instructions: 19000000 cycles: 21977679 heartbeat IPC: 0.718251 cumulative IPC: 0.726128 (Simulation time: 0 hr 14 min 54 sec) 
Heartbeat CPU 0 instructions: 20000000 cycles: 23351161 heartbeat IPC: 0.728077 cumulative IPC: 0.726323 (Simulation time: 0 hr 15 min 43 sec) 
Heartbeat CPU 0 instructions: 21000000 cycles: 24706942 heartbeat IPC: 0.737582 cumulative IPC: 0.727332 (Simulation time: 0 hr 16 min 31 sec) 
Heartbeat CPU 0 instructions: 22000000 cycles: 26042527 heartbeat IPC: 0.748736 cumulative IPC: 0.729069 (Simulation time: 0 hr 17 min 23 sec) 
Heartbeat CPU 0 instructions: 23000000 cycles: 27385369 heartbeat IPC: 0.744689 cumulative IPC: 0.730247 (Simulation time: 0 hr 18 min 13 sec) 
Heartbeat CPU 0 instructions: 24000000 cycles: 28756435 heartbeat IPC: 0.72936 cumulative IPC: 0.730184 (Simulation time: 0 hr 19 min 4 sec) 
Heartbeat CPU 0 instructions: 25000000 cycles: 30135669 heartbeat IPC: 0.72504 cumulative IPC: 0.729838 (Simulation time: 0 hr 19 min 52 sec) 
Heartbeat CPU 0 instructions: 26000002 cycles: 31548137 heartbeat IPC: 0.707982 cumulative IPC: 0.728433 (Simulation time: 0 hr 20 min 42 sec) 
Heartbeat CPU 0 instructions: 27000000 cycles: 32940212 heartbeat IPC: 0.718351 cumulative IPC: 0.727832 (Simulation time: 0 hr 21 min 31 sec) 
Heartbeat CPU 0 instructions: 28000000 cycles: 34288621 heartbeat IPC: 0.741615 cumulative IPC: 0.728584 (Simulation time: 0 hr 22 min 21 sec) 
Heartbeat CPU 0 instructions: 29000000 cycles: 35638258 heartbeat IPC: 0.74094 cumulative IPC: 0.729224 (Simulation time: 0 hr 23 min 12 sec) 
Heartbeat CPU 0 instructions: 30000000 cycles: 36993704 heartbeat IPC: 0.737765 cumulative IPC: 0.729647 (Simulation time: 0 hr 24 min 1 sec) 
Heartbeat CPU 0 instructions: 31000000 cycles: 38353910 heartbeat IPC: 0.735183 cumulative IPC: 0.729908 (Simulation time: 0 hr 24 min 50 sec) 
Heartbeat CPU 0 instructions: 32000000 cycles: 39741689 heartbeat IPC: 0.720576 cumulative IPC: 0.729479 (Simulation time: 0 hr 25 min 41 sec) 
Heartbeat CPU 0 instructions: 33000002 cycles: 41158323 heartbeat IPC: 0.7059 cumulative IPC: 0.728421 (Simulation time: 0 hr 26 min 32 sec) 
Heartbeat CPU 0 instructions: 34000002 cycles: 42532028 heartbeat IPC: 0.727958 cumulative IPC: 0.728402 (Simulation time: 0 hr 27 min 23 sec) 
Heartbeat CPU 0 instructions: 35000002 cycles: 43891776 heartbeat IPC: 0.73543 cumulative IPC: 0.72868 (Simulation time: 0 hr 28 min 16 sec) 
Heartbeat CPU 0 instructions: 36000000 cycles: 45234062 heartbeat IPC: 0.744996 cumulative IPC: 0.729295 (Simulation time: 0 hr 29 min 9 sec) 
Heartbeat CPU 0 instructions: 37000000 cycles: 46557870 heartbeat IPC: 0.755397 cumulative IPC: 0.730229 (Simulation time: 0 hr 30 min 1 sec) 
Heartbeat CPU 0 instructions: 38000002 cycles: 47905132 heartbeat IPC: 0.742248 cumulative IPC: 0.730652 (Simulation time: 0 hr 30 min 53 sec) 
Heartbeat CPU 0 instructions: 39000000 cycles: 49320597 heartbeat IPC: 0.70648 cumulative IPC: 0.729791 (Simulation time: 0 hr 31 min 44 sec) 
Heartbeat CPU 0 instructions: 40000000 cycles: 50699537 heartbeat IPC: 0.725195 cumulative IPC: 0.729637 (Simulation time: 0 hr 32 min 34 sec) 
Heartbeat CPU 0 instructions: 41000001 cycles: 52056942 heartbeat IPC: 0.736701 cumulative IPC: 0.729862 (Simulation time: 0 hr 33 min 25 sec) 
Heartbeat CPU 0 instructions: 42000003 cycles: 53402677 heartbeat IPC: 0.74309 cumulative IPC: 0.730269 (Simulation time: 0 hr 34 min 15 sec) 
Heartbeat CPU 0 instructions: 43000001 cycles: 54755486 heartbeat IPC: 0.739201 cumulative IPC: 0.730536 (Simulation time: 0 hr 35 min 7 sec) 
Heartbeat CPU 0 instructions: 44000000 cycles: 56098516 heartbeat IPC: 0.744584 cumulative IPC: 0.730942 (Simulation time: 0 hr 35 min 58 sec) 
Heartbeat CPU 0 instructions: 45000000 cycles: 57484049 heartbeat IPC: 0.721744 cumulative IPC: 0.730676 (Simulation time: 0 hr 36 min 46 sec) 
Heartbeat CPU 0 instructions: 46000000 cycles: 58891380 heartbeat IPC: 0.710565 cumulative IPC: 0.730102 (Simulation time: 0 hr 37 min 36 sec) 
Heartbeat CPU 0 instructions: 47000002 cycles: 60283483 heartbeat IPC: 0.718339 cumulative IPC: 0.729779 (Simulation time: 0 hr 38 min 30 sec) 
Heartbeat CPU 0 instructions: 48000000 cycles: 61646117 heartbeat IPC: 0.733871 cumulative IPC: 0.729886 (Simulation time: 0 hr 39 min 26 sec) 
Heartbeat CPU 0 instructions: 49000002 cycles: 62987755 heartbeat IPC: 0.745359 cumulative IPC: 0.730274 (Simulation time: 0 hr 40 min 21 sec) 
Heartbeat CPU 0 instructions: 50000000 cycles: 64325232 heartbeat IPC: 0.747675 cumulative IPC: 0.7307 (Simulation time: 0 hr 41 min 16 sec) 
Heartbeat CPU 0 instructions: 51000000 cycles: 65697708 heartbeat IPC: 0.72861 cumulative IPC: 0.730649 (Simulation time: 0 hr 42 min 11 sec) 
Heartbeat CPU 0 instructions: 52000000 cycles: 67106080 heartbeat IPC: 0.71004 cumulative IPC: 0.730144 (Simulation time: 0 hr 43 min 1 sec) 
Heartbeat CPU 0 instructions: 53000001 cycles: 68455349 heartbeat IPC: 0.741143 cumulative IPC: 0.730396 (Simulation time: 0 hr 43 min 48 sec) 
Heartbeat CPU 0 instructions: 54000000 cycles: 69786560 heartbeat IPC: 0.751195 cumulative IPC: 0.730856 (Simulation time: 0 hr 44 min 35 sec) 
Heartbeat CPU 0 instructions: 55000001 cycles: 71108186 heartbeat IPC: 0.756644 cumulative IPC: 0.73141 (Simulation time: 0 hr 45 min 26 sec) 
Heartbeat CPU 0 instructions: 56000000 cycles: 72445774 heartbeat IPC: 0.747614 cumulative IPC: 0.731755 (Simulation time: 0 hr 46 min 14 sec) 
Heartbeat CPU 0 instructions: 57000001 cycles: 73796165 heartbeat IPC: 0.740527 cumulative IPC: 0.731939 (Simulation time: 0 hr 46 min 58 sec) 
Heartbeat CPU 0 instructions: 58000000 cycles: 75189083 heartbeat IPC: 0.717917 cumulative IPC: 0.731641 (Simulation time: 0 hr 47 min 47 sec) 
Heartbeat CPU 0 instructions: 59000000 cycles: 76601459 heartbeat IPC: 0.708027 cumulative IPC: 0.731144 (Simulation time: 0 hr 48 min 46 sec) 
Heartbeat CPU 0 instructions: 60000000 cycles: 77992287 heartbeat IPC: 0.718996 cumulative IPC: 0.730897 (Simulation time: 0 hr 49 min 41 sec) 
Heartbeat CPU 0 instructions: 61000000 cycles: 79336244 heartbeat IPC: 0.744071 cumulative IPC: 0.731151 (Simulation time: 0 hr 50 min 33 sec) 
Heartbeat CPU 0 instructions: 62000002 cycles: 80714754 heartbeat IPC: 0.725422 cumulative IPC: 0.73104 (Simulation time: 0 hr 51 min 25 sec) 
Heartbeat CPU 0 instructions: 63000003 cycles: 82047501 heartbeat IPC: 0.750331 cumulative IPC: 0.731394 (Simulation time: 0 hr 52 min 17 sec) 
Heartbeat CPU 0 instructions: 64000000 cycles: 83384643 heartbeat IPC: 0.747862 cumulative IPC: 0.731693 (Simulation time: 0 hr 53 min 9 sec) 
Heartbeat CPU 0 instructions: 65000000 cycles: 84748805 heartbeat IPC: 0.733051 cumulative IPC: 0.731717 (Simulation time: 0 hr 54 min 0 sec) 
Heartbeat CPU 0 instructions: 66000002 cycles: 86156026 heartbeat IPC: 0.710622 cumulative IPC: 0.73133 (Simulation time: 0 hr 54 min 52 sec) 
Heartbeat CPU 0 instructions: 67000002 cycles: 87559355 heartbeat IPC: 0.712591 cumulative IPC: 0.730992 (Simulation time: 0 hr 55 min 44 sec) 
Heartbeat CPU 0 instructions: 68000000 cycles: 88931105 heartbeat IPC: 0.728994 cumulative IPC: 0.730958 (Simulation time: 0 hr 56 min 36 sec) 
Heartbeat CPU 0 instructions: 69000000 cycles: 90276644 heartbeat IPC: 0.743197 cumulative IPC: 0.731162 (Simulation time: 0 hr 57 min 30 sec) 
Heartbeat CPU 0 instructions: 70000000 cycles: 91621169 heartbeat IPC: 0.743757 cumulative IPC: 0.731368 (Simulation time: 0 hr 58 min 22 sec) 
Heartbeat CPU 0 instructions: 71000003 cycles: 92976832 heartbeat IPC: 0.737649 cumulative IPC: 0.731471 (Simulation time: 0 hr 59 min 13 sec) 
Heartbeat CPU 0 instructions: 72000000 cycles: 94332988 heartbeat IPC: 0.737376 cumulative IPC: 0.731565 (Simulation time: 1 hr 0 min 6 sec) 
Heartbeat CPU 0 instructions: 73000003 cycles: 95717802 heartbeat IPC: 0.722121 cumulative IPC: 0.731413 (Simulation time: 1 hr 0 min 57 sec) 
Heartbeat CPU 0 instructions: 74000001 cycles: 97130892 heartbeat IPC: 0.707668 cumulative IPC: 0.73103 (Simulation time: 1 hr 1 min 42 sec) 
Heartbeat CPU 0 instructions: 75000003 cycles: 98521002 heartbeat IPC: 0.719369 cumulative IPC: 0.730848 (Simulation time: 1 hr 2 min 25 sec) 
Heartbeat CPU 0 instructions: 76000000 cycles: 99881407 heartbeat IPC: 0.735073 cumulative IPC: 0.730911 (Simulation time: 1 hr 3 min 12 sec) 
Heartbeat CPU 0 instructions: 77000003 cycles: 101233754 heartbeat IPC: 0.739457 cumulative IPC: 0.731037 (Simulation time: 1 hr 3 min 54 sec) 
Heartbeat CPU 0 instructions: 78000001 cycles: 102583546 heartbeat IPC: 0.740853 cumulative IPC: 0.73118 (Simulation time: 1 hr 4 min 34 sec) 
Heartbeat CPU 0 instructions: 79000000 cycles: 103954706 heartbeat IPC: 0.729309 cumulative IPC: 0.731153 (Simulation time: 1 hr 5 min 10 sec) 
Heartbeat CPU 0 instructions: 80000000 cycles: 105320307 heartbeat IPC: 0.732278 cumulative IPC: 0.731169 (Simulation time: 1 hr 5 min 46 sec) 
Heartbeat CPU 0 instructions: 81000002 cycles: 106713572 heartbeat IPC: 0.71774 cumulative IPC: 0.730976 (Simulation time: 1 hr 6 min 21 sec) 
Heartbeat CPU 0 instructions: 82000000 cycles: 108100729 heartbeat IPC: 0.720897 cumulative IPC: 0.730834 (Simulation time: 1 hr 7 min 9 sec) 
Heartbeat CPU 0 instructions: 83000003 cycles: 109448970 heartbeat IPC: 0.741709 cumulative IPC: 0.730981 (Simulation time: 1 hr 7 min 58 sec) 
Heartbeat CPU 0 instructions: 84000000 cycles: 110810490 heartbeat IPC: 0.734471 cumulative IPC: 0.731028 (Simulation time: 1 hr 8 min 41 sec) 
Heartbeat CPU 0 instructions: 85000002 cycles: 112140424 heartbeat IPC: 0.751918 cumulative IPC: 0.731299 (Simulation time: 1 hr 9 min 26 sec) 
Heartbeat CPU 0 instructions: 86000003 cycles: 113461451 heartbeat IPC: 0.756988 cumulative IPC: 0.731626 (Simulation time: 1 hr 10 min 8 sec) 
Heartbeat CPU 0 instructions: 87000000 cycles: 114859064 heartbeat IPC: 0.715504 cumulative IPC: 0.731412 (Simulation time: 1 hr 10 min 50 sec) 
Heartbeat CPU 0 instructions: 88000000 cycles: 116225730 heartbeat IPC: 0.731708 cumulative IPC: 0.731415 (Simulation time: 1 hr 11 min 33 sec) 
Heartbeat CPU 0 instructions: 89000000 cycles: 117602082 heartbeat IPC: 0.726558 cumulative IPC: 0.731353 (Simulation time: 1 hr 12 min 12 sec) 
Heartbeat CPU 0 instructions: 90000000 cycles: 118935955 heartbeat IPC: 0.749697 cumulative IPC: 0.731577 (Simulation time: 1 hr 12 min 49 sec) 
Heartbeat CPU 0 instructions: 91000001 cycles: 120258971 heartbeat IPC: 0.75585 cumulative IPC: 0.731867 (Simulation time: 1 hr 13 min 26 sec) 
Heartbeat CPU 0 instructions: 92000000 cycles: 121593054 heartbeat IPC: 0.749578 cumulative IPC: 0.732078 (Simulation time: 1 hr 13 min 59 sec) 
Heartbeat CPU 0 instructions: 93000003 cycles: 122988990 heartbeat IPC: 0.716367 cumulative IPC: 0.731885 (Simulation time: 1 hr 14 min 32 sec) 
Heartbeat CPU 0 instructions: 94000000 cycles: 124347802 heartbeat IPC: 0.735935 cumulative IPC: 0.731933 (Simulation time: 1 hr 15 min 3 sec) 
Heartbeat CPU 0 instructions: 95000000 cycles: 125717663 heartbeat IPC: 0.730001 cumulative IPC: 0.73191 (Simulation time: 1 hr 15 min 34 sec) 
Heartbeat CPU 0 instructions: 96000000 cycles: 127065861 heartbeat IPC: 0.741731 cumulative IPC: 0.732023 (Simulation time: 1 hr 16 min 8 sec) 
Heartbeat CPU 0 instructions: 97000000 cycles: 128390480 heartbeat IPC: 0.754934 cumulative IPC: 0.732278 (Simulation time: 1 hr 16 min 40 sec) 
Heartbeat CPU 0 instructions: 98000003 cycles: 129719471 heartbeat IPC: 0.752453 cumulative IPC: 0.732501 (Simulation time: 1 hr 17 min 5 sec) 
Heartbeat CPU 0 instructions: 99000000 cycles: 131121286 heartbeat IPC: 0.713359 cumulative IPC: 0.732281 (Simulation time: 1 hr 17 min 30 sec) 
Heartbeat CPU 0 instructions: 100000000 cycles: 132480141 heartbeat IPC: 0.735914 cumulative IPC: 0.732321 (Simulation time: 1 hr 17 min 55 sec) 
Heartbeat CPU 0 instructions: 101000000 cycles: 133843087 heartbeat IPC: 0.733705 cumulative IPC: 0.732336 (Simulation time: 1 hr 18 min 19 sec) 
Heartbeat CPU 0 instructions: 102000001 cycles: 135174465 heartbeat IPC: 0.751102 cumulative IPC: 0.732535 (Simulation time: 1 hr 18 min 44 sec) 
Heartbeat CPU 0 instructions: 103000001 cycles: 136490769 heartbeat IPC: 0.759703 cumulative IPC: 0.732817 (Simulation time: 1 hr 19 min 8 sec) 
Heartbeat CPU 0 instructions: 104000000 cycles: 137811023 heartbeat IPC: 0.757429 cumulative IPC: 0.73307 (Simulation time: 1 hr 19 min 31 sec) 
Heartbeat CPU 0 instructions: 105000002 cycles: 139206467 heartbeat IPC: 0.716619 cumulative IPC: 0.732893 (Simulation time: 1 hr 19 min 53 sec) 
Heartbeat CPU 0 instructions: 106000000 cycles: 140626556 heartbeat IPC: 0.70418 cumulative IPC: 0.732582 (Simulation time: 1 hr 20 min 14 sec) 
Heartbeat CPU 0 instructions: 107000002 cycles: 142029831 heartbeat IPC: 0.71262 cumulative IPC: 0.73237 (Simulation time: 1 hr 20 min 36 sec) 
Heartbeat CPU 0 instructions: 108000000 cycles: 143404153 heartbeat IPC: 0.72763 cumulative IPC: 0.732322 (Simulation time: 1 hr 20 min 58 sec) 
Heartbeat CPU 0 instructions: 109000000 cycles: 144758293 heartbeat IPC: 0.738476 cumulative IPC: 0.732383 (Simulation time: 1 hr 21 min 24 sec) 
Heartbeat CPU 0 instructions: 110000000 cycles: 146105136 heartbeat IPC: 0.742477 cumulative IPC: 0.732483 (Simulation time: 1 hr 21 min 49 sec) 
Finished CPU 0 instructions: 100000003 cycles: 136521958 cummulative IPC: 0.732483 (Simulation time: 1 hr 21 min 49 sec) 

ChampSim completed all CPUs

Region of Interest Statistics

CPU 0 cummulative IPC: 0.732483 instructions: 100000003 cycles: 136521958
LLC TOTAL     ACCESS:   21346119  HIT:   21111219  MISS:     234900
LLC LOAD      ACCESS:     165909  HIT:     123400  MISS:      42509
LLC RFO       ACCESS:   10463422  HIT:   10456801  MISS:       6621
LLC PREFETCH  ACCESS:     183300  HIT:      27924  MISS:     155376
LLC WRITEBACK ACCESS:   10533488  HIT:   10503094  MISS:      30394
