
*** ChampSim Multicore Out-of-Order Simulator ***

Warmup Instructions: 10000000
Simulation Instructions: 100000000
Configuration: 2
Number of CPUs: 1
LLC sets: 2048
LLC ways: 16
Off-chip DRAM Channels: 1 Width: 64-bit Data Rate: 1600 MT/s

CPU 0 runs /datasets/cs240c-wi22-a00-public/data/Assignment2-gz/gcc_13B.trace.gz
CPU 0 L1D next line prefetcher
CPU 0 L2C IP-based stride prefetcher
Heartbeat CPU 0 instructions: 1000000 cycles: 633311 heartbeat IPC: 1.579 cumulative IPC: 1.579 (Simulation time: 0 hr 0 min 47 sec) 
Heartbeat CPU 0 instructions: 2000001 cycles: 1243580 heartbeat IPC: 1.63862 cumulative IPC: 1.60826 (Simulation time: 0 hr 1 min 34 sec) 
Heartbeat CPU 0 instructions: 3000001 cycles: 1717231 heartbeat IPC: 2.11126 cumulative IPC: 1.747 (Simulation time: 0 hr 2 min 21 sec) 
Heartbeat CPU 0 instructions: 4000000 cycles: 2190603 heartbeat IPC: 2.1125 cumulative IPC: 1.82598 (Simulation time: 0 hr 3 min 6 sec) 
Heartbeat CPU 0 instructions: 5000002 cycles: 2664517 heartbeat IPC: 2.11009 cumulative IPC: 1.87651 (Simulation time: 0 hr 3 min 52 sec) 
Heartbeat CPU 0 instructions: 6000002 cycles: 3138290 heartbeat IPC: 2.11072 cumulative IPC: 1.91187 (Simulation time: 0 hr 4 min 38 sec) 
Heartbeat CPU 0 instructions: 7000001 cycles: 3613657 heartbeat IPC: 2.10364 cumulative IPC: 1.9371 (Simulation time: 0 hr 5 min 22 sec) 
Heartbeat CPU 0 instructions: 8000000 cycles: 4090382 heartbeat IPC: 2.09764 cumulative IPC: 1.95581 (Simulation time: 0 hr 6 min 4 sec) 
Heartbeat CPU 0 instructions: 9000001 cycles: 4831244 heartbeat IPC: 1.34978 cumulative IPC: 1.86287 (Simulation time: 0 hr 6 min 52 sec) 
Heartbeat CPU 0 instructions: 10000001 cycles: 5535824 heartbeat IPC: 1.41929 cumulative IPC: 1.80642 (Simulation time: 0 hr 7 min 38 sec) 

Warmup complete CPU 0 instructions: 10000001 cycles: 5535824 (Simulation time: 0 hr 7 min 38 sec) 

Heartbeat CPU 0 instructions: 11000000 cycles: 12631710 heartbeat IPC: 0.140927 cumulative IPC: 0.140927 (Simulation time: 0 hr 8 min 46 sec) 
Heartbeat CPU 0 instructions: 12000000 cycles: 19046859 heartbeat IPC: 0.155881 cumulative IPC: 0.148027 (Simulation time: 0 hr 9 min 53 sec) 
Heartbeat CPU 0 instructions: 13000000 cycles: 25028049 heartbeat IPC: 0.167191 cumulative IPC: 0.153907 (Simulation time: 0 hr 11 min 3 sec) 
Heartbeat CPU 0 instructions: 14000000 cycles: 30532103 heartbeat IPC: 0.181684 cumulative IPC: 0.160024 (Simulation time: 0 hr 12 min 9 sec) 
Heartbeat CPU 0 instructions: 15000000 cycles: 33200839 heartbeat IPC: 0.374709 cumulative IPC: 0.180734 (Simulation time: 0 hr 13 min 13 sec) 
Heartbeat CPU 0 instructions: 16000000 cycles: 35373224 heartbeat IPC: 0.460324 cumulative IPC: 0.20109 (Simulation time: 0 hr 14 min 9 sec) 
Heartbeat CPU 0 instructions: 17000000 cycles: 37582024 heartbeat IPC: 0.452735 cumulative IPC: 0.218435 (Simulation time: 0 hr 15 min 0 sec) 
Heartbeat CPU 0 instructions: 18000000 cycles: 39780365 heartbeat IPC: 0.454888 cumulative IPC: 0.233614 (Simulation time: 0 hr 15 min 51 sec) 
Heartbeat CPU 0 instructions: 19000002 cycles: 41968582 heartbeat IPC: 0.456994 cumulative IPC: 0.24703 (Simulation time: 0 hr 16 min 42 sec) 
Heartbeat CPU 0 instructions: 20000000 cycles: 44160218 heartbeat IPC: 0.456279 cumulative IPC: 0.258904 (Simulation time: 0 hr 17 min 38 sec) 
Heartbeat CPU 0 instructions: 21000001 cycles: 46566751 heartbeat IPC: 0.415536 cumulative IPC: 0.26809 (Simulation time: 0 hr 18 min 35 sec) 
Heartbeat CPU 0 instructions: 22000001 cycles: 50623398 heartbeat IPC: 0.246509 cumulative IPC: 0.266149 (Simulation time: 0 hr 19 min 50 sec) 
Heartbeat CPU 0 instructions: 23000002 cycles: 57499361 heartbeat IPC: 0.145434 cumulative IPC: 0.250175 (Simulation time: 0 hr 21 min 11 sec) 
Heartbeat CPU 0 instructions: 24000000 cycles: 64204103 heartbeat IPC: 0.149148 cumulative IPC: 0.23863 (Simulation time: 0 hr 22 min 24 sec) 
Heartbeat CPU 0 instructions: 25000000 cycles: 70373606 heartbeat IPC: 0.162088 cumulative IPC: 0.231347 (Simulation time: 0 hr 23 min 36 sec) 
Heartbeat CPU 0 instructions: 26000001 cycles: 76098433 heartbeat IPC: 0.174678 cumulative IPC: 0.226749 (Simulation time: 0 hr 24 min 48 sec) 
Heartbeat CPU 0 instructions: 27000000 cycles: 81330053 heartbeat IPC: 0.191145 cumulative IPC: 0.224291 (Simulation time: 0 hr 26 min 3 sec) 
Heartbeat CPU 0 instructions: 28000000 cycles: 83724250 heartbeat IPC: 0.417677 cumulative IPC: 0.230213 (Simulation time: 0 hr 27 min 5 sec) 
Heartbeat CPU 0 instructions: 29000000 cycles: 85795457 heartbeat IPC: 0.48281 cumulative IPC: 0.236732 (Simulation time: 0 hr 28 min 1 sec) 
Heartbeat CPU 0 instructions: 30000001 cycles: 87889794 heartbeat IPC: 0.477479 cumulative IPC: 0.242854 (Simulation time: 0 hr 28 min 59 sec) 
Heartbeat CPU 0 instructions: 31000000 cycles: 89998000 heartbeat IPC: 0.474336 cumulative IPC: 0.248632 (Simulation time: 0 hr 29 min 55 sec) 
Heartbeat CPU 0 instructions: 32000000 cycles: 92093792 heartbeat IPC: 0.477147 cumulative IPC: 0.254165 (Simulation time: 0 hr 30 min 49 sec) 
Heartbeat CPU 0 instructions: 33000000 cycles: 94190960 heartbeat IPC: 0.476834 cumulative IPC: 0.259432 (Simulation time: 0 hr 31 min 45 sec) 
Heartbeat CPU 0 instructions: 34000000 cycles: 96921724 heartbeat IPC: 0.366198 cumulative IPC: 0.262623 (Simulation time: 0 hr 32 min 42 sec) 
Heartbeat CPU 0 instructions: 35000000 cycles: 111063615 heartbeat IPC: 0.0707119 cumulative IPC: 0.236904 (Simulation time: 0 hr 35 min 7 sec) 
Heartbeat CPU 0 instructions: 36000000 cycles: 114921539 heartbeat IPC: 0.259207 cumulative IPC: 0.237691 (Simulation time: 0 hr 36 min 17 sec) 
Heartbeat CPU 0 instructions: 37000003 cycles: 118764700 heartbeat IPC: 0.260203 cumulative IPC: 0.238455 (Simulation time: 0 hr 37 min 25 sec) 
Heartbeat CPU 0 instructions: 38000000 cycles: 122624312 heartbeat IPC: 0.259093 cumulative IPC: 0.239135 (Simulation time: 0 hr 38 min 30 sec) 
Heartbeat CPU 0 instructions: 39000000 cycles: 126395006 heartbeat IPC: 0.265203 cumulative IPC: 0.239949 (Simulation time: 0 hr 39 min 38 sec) 
Heartbeat CPU 0 instructions: 40000000 cycles: 130065619 heartbeat IPC: 0.272434 cumulative IPC: 0.240906 (Simulation time: 0 hr 40 min 47 sec) 
Heartbeat CPU 0 instructions: 41000000 cycles: 133705360 heartbeat IPC: 0.274745 cumulative IPC: 0.241867 (Simulation time: 0 hr 41 min 52 sec) 
Heartbeat CPU 0 instructions: 42000000 cycles: 137367647 heartbeat IPC: 0.273053 cumulative IPC: 0.242733 (Simulation time: 0 hr 43 min 4 sec) 
Heartbeat CPU 0 instructions: 43000002 cycles: 141035130 heartbeat IPC: 0.272667 cumulative IPC: 0.243544 (Simulation time: 0 hr 44 min 7 sec) 
Heartbeat CPU 0 instructions: 44000000 cycles: 144696609 heartbeat IPC: 0.273113 cumulative IPC: 0.244322 (Simulation time: 0 hr 45 min 7 sec) 
Heartbeat CPU 0 instructions: 45000001 cycles: 148328475 heartbeat IPC: 0.275341 cumulative IPC: 0.245111 (Simulation time: 0 hr 46 min 14 sec) 
Heartbeat CPU 0 instructions: 46000001 cycles: 151938287 heartbeat IPC: 0.277023 cumulative IPC: 0.245898 (Simulation time: 0 hr 47 min 19 sec) 
Heartbeat CPU 0 instructions: 47000001 cycles: 155535728 heartbeat IPC: 0.277975 cumulative IPC: 0.246667 (Simulation time: 0 hr 48 min 24 sec) 
Heartbeat CPU 0 instructions: 48000000 cycles: 159106273 heartbeat IPC: 0.280069 cumulative IPC: 0.247443 (Simulation time: 0 hr 49 min 25 sec) 
Heartbeat CPU 0 instructions: 49000000 cycles: 162691263 heartbeat IPC: 0.278941 cumulative IPC: 0.248162 (Simulation time: 0 hr 50 min 25 sec) 
Heartbeat CPU 0 instructions: 50000003 cycles: 166274127 heartbeat IPC: 0.279107 cumulative IPC: 0.248852 (Simulation time: 0 hr 51 min 32 sec) 
Heartbeat CPU 0 instructions: 51000001 cycles: 169856967 heartbeat IPC: 0.279108 cumulative IPC: 0.249511 (Simulation time: 0 hr 52 min 41 sec) 
Heartbeat CPU 0 instructions: 52000000 cycles: 173424759 heartbeat IPC: 0.280285 cumulative IPC: 0.250165 (Simulation time: 0 hr 53 min 48 sec) 
Heartbeat CPU 0 instructions: 53000001 cycles: 177007190 heartbeat IPC: 0.27914 cumulative IPC: 0.250771 (Simulation time: 0 hr 54 min 55 sec) 
Heartbeat CPU 0 instructions: 54000000 cycles: 180582224 heartbeat IPC: 0.279717 cumulative IPC: 0.251362 (Simulation time: 0 hr 56 min 7 sec) 
Heartbeat CPU 0 instructions: 55000000 cycles: 184166921 heartbeat IPC: 0.278964 cumulative IPC: 0.251916 (Simulation time: 0 hr 57 min 13 sec) 
Heartbeat CPU 0 instructions: 56000000 cycles: 187741124 heartbeat IPC: 0.279783 cumulative IPC: 0.252462 (Simulation time: 0 hr 58 min 24 sec) 
Heartbeat CPU 0 instructions: 57000002 cycles: 191281113 heartbeat IPC: 0.282487 cumulative IPC: 0.253035 (Simulation time: 0 hr 59 min 35 sec) 
Heartbeat CPU 0 instructions: 58000001 cycles: 194826963 heartbeat IPC: 0.28202 cumulative IPC: 0.253578 (Simulation time: 1 hr 0 min 43 sec) 
Heartbeat CPU 0 instructions: 59000003 cycles: 198344910 heartbeat IPC: 0.284257 cumulative IPC: 0.254137 (Simulation time: 1 hr 1 min 51 sec) 
Heartbeat CPU 0 instructions: 60000000 cycles: 201859844 heartbeat IPC: 0.284499 cumulative IPC: 0.254681 (Simulation time: 1 hr 2 min 59 sec) 
Heartbeat CPU 0 instructions: 61000000 cycles: 205371038 heartbeat IPC: 0.284803 cumulative IPC: 0.25521 (Simulation time: 1 hr 4 min 5 sec) 
Heartbeat CPU 0 instructions: 62000003 cycles: 208878875 heartbeat IPC: 0.285077 cumulative IPC: 0.255726 (Simulation time: 1 hr 5 min 16 sec) 
Heartbeat CPU 0 instructions: 63000001 cycles: 212389158 heartbeat IPC: 0.284877 cumulative IPC: 0.25622 (Simulation time: 1 hr 6 min 27 sec) 
Heartbeat CPU 0 instructions: 64000000 cycles: 215919604 heartbeat IPC: 0.28325 cumulative IPC: 0.256674 (Simulation time: 1 hr 7 min 27 sec) 
Heartbeat CPU 0 instructions: 65000000 cycles: 219490633 heartbeat IPC: 0.280031 cumulative IPC: 0.257064 (Simulation time: 1 hr 8 min 26 sec) 
Heartbeat CPU 0 instructions: 66000000 cycles: 223096522 heartbeat IPC: 0.277324 cumulative IPC: 0.257399 (Simulation time: 1 hr 9 min 22 sec) 
Heartbeat CPU 0 instructions: 67000001 cycles: 226860585 heartbeat IPC: 0.265671 cumulative IPC: 0.25754 (Simulation time: 1 hr 10 min 21 sec) 
Heartbeat CPU 0 instructions: 68000000 cycles: 230643096 heartbeat IPC: 0.264374 cumulative IPC: 0.257655 (Simulation time: 1 hr 11 min 19 sec) 
Heartbeat CPU 0 instructions: 69000003 cycles: 234423277 heartbeat IPC: 0.264538 cumulative IPC: 0.257769 (Simulation time: 1 hr 12 min 22 sec) 
Heartbeat CPU 0 instructions: 70000000 cycles: 238246531 heartbeat IPC: 0.261557 cumulative IPC: 0.257831 (Simulation time: 1 hr 13 min 13 sec) 
Heartbeat CPU 0 instructions: 71000002 cycles: 241863598 heartbeat IPC: 0.276468 cumulative IPC: 0.258116 (Simulation time: 1 hr 14 min 9 sec) 
Heartbeat CPU 0 instructions: 72000000 cycles: 245457325 heartbeat IPC: 0.278262 cumulative IPC: 0.258418 (Simulation time: 1 hr 15 min 2 sec) 
Heartbeat CPU 0 instructions: 73000003 cycles: 249047704 heartbeat IPC: 0.278523 cumulative IPC: 0.258714 (Simulation time: 1 hr 15 min 48 sec) 
Heartbeat CPU 0 instructions: 74000000 cycles: 252664857 heartbeat IPC: 0.27646 cumulative IPC: 0.258974 (Simulation time: 1 hr 16 min 34 sec) 
Heartbeat CPU 0 instructions: 75000000 cycles: 256283171 heartbeat IPC: 0.276372 cumulative IPC: 0.259225 (Simulation time: 1 hr 17 min 13 sec) 
Heartbeat CPU 0 instructions: 76000000 cycles: 259915432 heartbeat IPC: 0.275311 cumulative IPC: 0.259455 (Simulation time: 1 hr 17 min 49 sec) 
Heartbeat CPU 0 instructions: 77000000 cycles: 263520461 heartbeat IPC: 0.27739 cumulative IPC: 0.259705 (Simulation time: 1 hr 18 min 22 sec) 
Heartbeat CPU 0 instructions: 78000003 cycles: 267072270 heartbeat IPC: 0.281548 cumulative IPC: 0.260002 (Simulation time: 1 hr 18 min 56 sec) 
Heartbeat CPU 0 instructions: 79000000 cycles: 270650264 heartbeat IPC: 0.279485 cumulative IPC: 0.260265 (Simulation time: 1 hr 19 min 25 sec) 
Heartbeat CPU 0 instructions: 80000000 cycles: 274197868 heartbeat IPC: 0.28188 cumulative IPC: 0.26055 (Simulation time: 1 hr 19 min 56 sec) 
Heartbeat CPU 0 instructions: 81000001 cycles: 277732294 heartbeat IPC: 0.282932 cumulative IPC: 0.260841 (Simulation time: 1 hr 20 min 26 sec) 
Heartbeat CPU 0 instructions: 82000000 cycles: 281269698 heartbeat IPC: 0.282693 cumulative IPC: 0.261121 (Simulation time: 1 hr 20 min 57 sec) 
Heartbeat CPU 0 instructions: 83000003 cycles: 284826734 heartbeat IPC: 0.281134 cumulative IPC: 0.261376 (Simulation time: 1 hr 21 min 26 sec) 
Heartbeat CPU 0 instructions: 84000000 cycles: 288366146 heartbeat IPC: 0.282532 cumulative IPC: 0.261641 (Simulation time: 1 hr 21 min 50 sec) 
Heartbeat CPU 0 instructions: 85000000 cycles: 291900087 heartbeat IPC: 0.28297 cumulative IPC: 0.261904 (Simulation time: 1 hr 22 min 9 sec) 
Heartbeat CPU 0 instructions: 86000001 cycles: 295445303 heartbeat IPC: 0.282071 cumulative IPC: 0.262151 (Simulation time: 1 hr 22 min 30 sec) 
Heartbeat CPU 0 instructions: 87000001 cycles: 298996599 heartbeat IPC: 0.281587 cumulative IPC: 0.262386 (Simulation time: 1 hr 22 min 49 sec) 
Heartbeat CPU 0 instructions: 88000000 cycles: 302537619 heartbeat IPC: 0.282404 cumulative IPC: 0.262625 (Simulation time: 1 hr 23 min 7 sec) 
Heartbeat CPU 0 instructions: 89000003 cycles: 306076804 heartbeat IPC: 0.282552 cumulative IPC: 0.262859 (Simulation time: 1 hr 23 min 21 sec) 
Heartbeat CPU 0 instructions: 90000000 cycles: 309615928 heartbeat IPC: 0.282555 cumulative IPC: 0.263089 (Simulation time: 1 hr 23 min 33 sec) 
Heartbeat CPU 0 instructions: 91000000 cycles: 313143946 heartbeat IPC: 0.283445 cumulative IPC: 0.263322 (Simulation time: 1 hr 23 min 45 sec) 
Heartbeat CPU 0 instructions: 92000000 cycles: 316655703 heartbeat IPC: 0.284758 cumulative IPC: 0.263564 (Simulation time: 1 hr 23 min 57 sec) 
Heartbeat CPU 0 instructions: 93000001 cycles: 320172046 heartbeat IPC: 0.284387 cumulative IPC: 0.263797 (Simulation time: 1 hr 24 min 6 sec) 
Heartbeat CPU 0 instructions: 94000003 cycles: 323677745 heartbeat IPC: 0.28525 cumulative IPC: 0.264033 (Simulation time: 1 hr 24 min 14 sec) 
Heartbeat CPU 0 instructions: 95000002 cycles: 327190300 heartbeat IPC: 0.284693 cumulative IPC: 0.264259 (Simulation time: 1 hr 24 min 21 sec) 
Heartbeat CPU 0 instructions: 96000000 cycles: 330685459 heartbeat IPC: 0.286109 cumulative IPC: 0.264494 (Simulation time: 1 hr 24 min 28 sec) 
Heartbeat CPU 0 instructions: 97000000 cycles: 334176635 heartbeat IPC: 0.286436 cumulative IPC: 0.264727 (Simulation time: 1 hr 24 min 34 sec) 
Heartbeat CPU 0 instructions: 98000000 cycles: 337661924 heartbeat IPC: 0.28692 cumulative IPC: 0.26496 (Simulation time: 1 hr 24 min 40 sec) 
Heartbeat CPU 0 instructions: 99000000 cycles: 341166049 heartbeat IPC: 0.285378 cumulative IPC: 0.265173 (Simulation time: 1 hr 24 min 46 sec) 
Heartbeat CPU 0 instructions: 100000000 cycles: 344704541 heartbeat IPC: 0.282606 cumulative IPC: 0.265355 (Simulation time: 1 hr 24 min 52 sec) 
Heartbeat CPU 0 instructions: 101000003 cycles: 348217446 heartbeat IPC: 0.284666 cumulative IPC: 0.265553 (Simulation time: 1 hr 24 min 58 sec) 
Heartbeat CPU 0 instructions: 102000000 cycles: 352272082 heartbeat IPC: 0.246631 cumulative IPC: 0.265331 (Simulation time: 1 hr 25 min 4 sec) 
Heartbeat CPU 0 instructions: 103000002 cycles: 356610296 heartbeat IPC: 0.23051 cumulative IPC: 0.264901 (Simulation time: 1 hr 25 min 11 sec) 
Heartbeat CPU 0 instructions: 104000000 cycles: 360715158 heartbeat IPC: 0.243613 cumulative IPC: 0.264655 (Simulation time: 1 hr 25 min 17 sec) 
Heartbeat CPU 0 instructions: 105000000 cycles: 364614243 heartbeat IPC: 0.25647 cumulative IPC: 0.264566 (Simulation time: 1 hr 25 min 23 sec) 
Heartbeat CPU 0 instructions: 106000002 cycles: 368502765 heartbeat IPC: 0.257168 cumulative IPC: 0.264487 (Simulation time: 1 hr 25 min 29 sec) 
Heartbeat CPU 0 instructions: 107000001 cycles: 372435657 heartbeat IPC: 0.254266 cumulative IPC: 0.264377 (Simulation time: 1 hr 25 min 35 sec) 
Heartbeat CPU 0 instructions: 108000000 cycles: 376246943 heartbeat IPC: 0.262378 cumulative IPC: 0.264357 (Simulation time: 1 hr 25 min 41 sec) 
Heartbeat CPU 0 instructions: 109000000 cycles: 379974872 heartbeat IPC: 0.268245 cumulative IPC: 0.264396 (Simulation time: 1 hr 25 min 47 sec) 
Heartbeat CPU 0 instructions: 110000002 cycles: 383676859 heartbeat IPC: 0.270126 cumulative IPC: 0.264452 (Simulation time: 1 hr 25 min 53 sec) 
Finished CPU 0 instructions: 100000001 cycles: 378141035 cummulative IPC: 0.264452 (Simulation time: 1 hr 25 min 53 sec) 

ChampSim completed all CPUs

Region of Interest Statistics

CPU 0 cummulative IPC: 0.264452 instructions: 100000001 cycles: 378141035
LLC TOTAL     ACCESS:    2540809  HIT:     297620  MISS:    2243189
LLC LOAD      ACCESS:     648066  HIT:      68760  MISS:     579306
LLC RFO       ACCESS:     277225  HIT:      29270  MISS:     247955
LLC PREFETCH  ACCESS:    1132249  HIT:      66924  MISS:    1065325
LLC WRITEBACK ACCESS:     483269  HIT:     132666  MISS:     350603
