
*** ChampSim Multicore Out-of-Order Simulator ***

Warmup Instructions: 10000000
Simulation Instructions: 100000000
Configuration: 2
Number of CPUs: 1
LLC sets: 2048
LLC ways: 16
Off-chip DRAM Channels: 1 Width: 64-bit Data Rate: 1600 MT/s

CPU 0 runs /datasets/cs240c-wi22-a00-public/data/Assignment2-gz/wrf_1228B.trace.gz
CPU 0 L1D next line prefetcher
CPU 0 L2C IP-based stride prefetcher
Heartbeat CPU 0 instructions: 1000003 cycles: 591062 heartbeat IPC: 1.69187 cumulative IPC: 1.69187 (Simulation time: 0 hr 0 min 44 sec) 
Heartbeat CPU 0 instructions: 2000002 cycles: 1111152 heartbeat IPC: 1.92274 cumulative IPC: 1.79994 (Simulation time: 0 hr 1 min 22 sec) 
Heartbeat CPU 0 instructions: 3000000 cycles: 1729111 heartbeat IPC: 1.61823 cumulative IPC: 1.735 (Simulation time: 0 hr 2 min 8 sec) 
Heartbeat CPU 0 instructions: 4000000 cycles: 2349763 heartbeat IPC: 1.61121 cumulative IPC: 1.7023 (Simulation time: 0 hr 2 min 59 sec) 
Heartbeat CPU 0 instructions: 5000000 cycles: 3052127 heartbeat IPC: 1.42376 cumulative IPC: 1.6382 (Simulation time: 0 hr 3 min 45 sec) 
Heartbeat CPU 0 instructions: 6000000 cycles: 3612217 heartbeat IPC: 1.78543 cumulative IPC: 1.66103 (Simulation time: 0 hr 4 min 23 sec) 
Heartbeat CPU 0 instructions: 7000001 cycles: 4164978 heartbeat IPC: 1.8091 cumulative IPC: 1.68068 (Simulation time: 0 hr 5 min 3 sec) 
Heartbeat CPU 0 instructions: 8000000 cycles: 4716342 heartbeat IPC: 1.81368 cumulative IPC: 1.69623 (Simulation time: 0 hr 5 min 42 sec) 
Heartbeat CPU 0 instructions: 9000002 cycles: 5266532 heartbeat IPC: 1.81756 cumulative IPC: 1.7089 (Simulation time: 0 hr 6 min 25 sec) 
Heartbeat CPU 0 instructions: 10000001 cycles: 5819428 heartbeat IPC: 1.80866 cumulative IPC: 1.71838 (Simulation time: 0 hr 7 min 14 sec) 

Warmup complete CPU 0 instructions: 10000001 cycles: 5819428 (Simulation time: 0 hr 7 min 14 sec) 

Heartbeat CPU 0 instructions: 11000000 cycles: 6678837 heartbeat IPC: 1.16359 cumulative IPC: 1.16359 (Simulation time: 0 hr 8 min 3 sec) 
Heartbeat CPU 0 instructions: 12000000 cycles: 7552155 heartbeat IPC: 1.14506 cumulative IPC: 1.15425 (Simulation time: 0 hr 9 min 0 sec) 
Heartbeat CPU 0 instructions: 13000003 cycles: 8432177 heartbeat IPC: 1.13634 cumulative IPC: 1.14822 (Simulation time: 0 hr 10 min 4 sec) 
Heartbeat CPU 0 instructions: 14000002 cycles: 9314804 heartbeat IPC: 1.13298 cumulative IPC: 1.14437 (Simulation time: 0 hr 10 min 58 sec) 
Heartbeat CPU 0 instructions: 15000001 cycles: 10146653 heartbeat IPC: 1.20214 cumulative IPC: 1.15547 (Simulation time: 0 hr 11 min 54 sec) 
Heartbeat CPU 0 instructions: 16000000 cycles: 10968101 heartbeat IPC: 1.21736 cumulative IPC: 1.16535 (Simulation time: 0 hr 12 min 44 sec) 
Heartbeat CPU 0 instructions: 17000002 cycles: 11792402 heartbeat IPC: 1.21315 cumulative IPC: 1.17195 (Simulation time: 0 hr 13 min 28 sec) 
Heartbeat CPU 0 instructions: 18000003 cycles: 12592054 heartbeat IPC: 1.25055 cumulative IPC: 1.18123 (Simulation time: 0 hr 14 min 16 sec) 
Heartbeat CPU 0 instructions: 19000000 cycles: 13386204 heartbeat IPC: 1.2592 cumulative IPC: 1.18941 (Simulation time: 0 hr 15 min 3 sec) 
Heartbeat CPU 0 instructions: 20000000 cycles: 14172078 heartbeat IPC: 1.27247 cumulative IPC: 1.19722 (Simulation time: 0 hr 15 min 59 sec) 
Heartbeat CPU 0 instructions: 21000000 cycles: 14949587 heartbeat IPC: 1.28616 cumulative IPC: 1.2048 (Simulation time: 0 hr 16 min 46 sec) 
Heartbeat CPU 0 instructions: 22000000 cycles: 15759731 heartbeat IPC: 1.23435 cumulative IPC: 1.20721 (Simulation time: 0 hr 17 min 38 sec) 
Heartbeat CPU 0 instructions: 23000003 cycles: 16702641 heartbeat IPC: 1.06055 cumulative IPC: 1.1945 (Simulation time: 0 hr 18 min 33 sec) 
Heartbeat CPU 0 instructions: 24000000 cycles: 17624186 heartbeat IPC: 1.08513 cumulative IPC: 1.18596 (Simulation time: 0 hr 19 min 30 sec) 
Heartbeat CPU 0 instructions: 25000000 cycles: 18547224 heartbeat IPC: 1.08338 cumulative IPC: 1.17852 (Simulation time: 0 hr 20 min 23 sec) 
Heartbeat CPU 0 instructions: 26000003 cycles: 19462116 heartbeat IPC: 1.09303 cumulative IPC: 1.17279 (Simulation time: 0 hr 21 min 15 sec) 
Heartbeat CPU 0 instructions: 27000003 cycles: 20375466 heartbeat IPC: 1.09487 cumulative IPC: 1.1679 (Simulation time: 0 hr 22 min 10 sec) 
Heartbeat CPU 0 instructions: 28000000 cycles: 21285146 heartbeat IPC: 1.09928 cumulative IPC: 1.16386 (Simulation time: 0 hr 22 min 59 sec) 
Heartbeat CPU 0 instructions: 29000003 cycles: 22989750 heartbeat IPC: 0.586648 cumulative IPC: 1.10656 (Simulation time: 0 hr 24 min 4 sec) 
Heartbeat CPU 0 instructions: 30000000 cycles: 24702050 heartbeat IPC: 0.584008 cumulative IPC: 1.05917 (Simulation time: 0 hr 25 min 5 sec) 
Heartbeat CPU 0 instructions: 31000003 cycles: 26451077 heartbeat IPC: 0.571748 cumulative IPC: 1.01785 (Simulation time: 0 hr 25 min 59 sec) 
Heartbeat CPU 0 instructions: 32000000 cycles: 28098798 heartbeat IPC: 0.606897 cumulative IPC: 0.987461 (Simulation time: 0 hr 26 min 52 sec) 
Heartbeat CPU 0 instructions: 33000001 cycles: 29482377 heartbeat IPC: 0.722764 cumulative IPC: 0.971984 (Simulation time: 0 hr 27 min 46 sec) 
Heartbeat CPU 0 instructions: 34000002 cycles: 30947321 heartbeat IPC: 0.682621 cumulative IPC: 0.955114 (Simulation time: 0 hr 28 min 39 sec) 
Heartbeat CPU 0 instructions: 35000001 cycles: 32851715 heartbeat IPC: 0.525101 cumulative IPC: 0.92482 (Simulation time: 0 hr 29 min 39 sec) 
Heartbeat CPU 0 instructions: 36000000 cycles: 33830664 heartbeat IPC: 1.0215 cumulative IPC: 0.928199 (Simulation time: 0 hr 30 min 27 sec) 
Heartbeat CPU 0 instructions: 37000001 cycles: 34803325 heartbeat IPC: 1.02811 cumulative IPC: 0.931552 (Simulation time: 0 hr 31 min 14 sec) 
Heartbeat CPU 0 instructions: 38000003 cycles: 35756865 heartbeat IPC: 1.04873 cumulative IPC: 0.935284 (Simulation time: 0 hr 32 min 1 sec) 
Heartbeat CPU 0 instructions: 39000002 cycles: 36748759 heartbeat IPC: 1.00817 cumulative IPC: 0.937621 (Simulation time: 0 hr 32 min 50 sec) 
Heartbeat CPU 0 instructions: 40000000 cycles: 37706243 heartbeat IPC: 1.0444 cumulative IPC: 0.940828 (Simulation time: 0 hr 33 min 39 sec) 
Heartbeat CPU 0 instructions: 41000000 cycles: 38679152 heartbeat IPC: 1.02785 cumulative IPC: 0.943404 (Simulation time: 0 hr 34 min 26 sec) 
Heartbeat CPU 0 instructions: 42000002 cycles: 39646976 heartbeat IPC: 1.03325 cumulative IPC: 0.945975 (Simulation time: 0 hr 35 min 12 sec) 
Heartbeat CPU 0 instructions: 43000002 cycles: 40627019 heartbeat IPC: 1.02036 cumulative IPC: 0.948069 (Simulation time: 0 hr 36 min 0 sec) 
Heartbeat CPU 0 instructions: 44000000 cycles: 41534346 heartbeat IPC: 1.10214 cumulative IPC: 0.951983 (Simulation time: 0 hr 36 min 42 sec) 
Heartbeat CPU 0 instructions: 45000000 cycles: 42426591 heartbeat IPC: 1.12077 cumulative IPC: 0.956097 (Simulation time: 0 hr 37 min 21 sec) 
Heartbeat CPU 0 instructions: 46000001 cycles: 43319195 heartbeat IPC: 1.12032 cumulative IPC: 0.960006 (Simulation time: 0 hr 38 min 3 sec) 
Heartbeat CPU 0 instructions: 47000001 cycles: 44215191 heartbeat IPC: 1.11608 cumulative IPC: 0.963648 (Simulation time: 0 hr 38 min 46 sec) 
Heartbeat CPU 0 instructions: 48000000 cycles: 45110538 heartbeat IPC: 1.11688 cumulative IPC: 0.96714 (Simulation time: 0 hr 39 min 28 sec) 
Heartbeat CPU 0 instructions: 49000001 cycles: 46013348 heartbeat IPC: 1.10765 cumulative IPC: 0.970296 (Simulation time: 0 hr 40 min 11 sec) 
Heartbeat CPU 0 instructions: 50000002 cycles: 46928042 heartbeat IPC: 1.09326 cumulative IPC: 0.973032 (Simulation time: 0 hr 40 min 54 sec) 
Heartbeat CPU 0 instructions: 51000001 cycles: 47829275 heartbeat IPC: 1.10959 cumulative IPC: 0.975962 (Simulation time: 0 hr 41 min 36 sec) 
Heartbeat CPU 0 instructions: 52000000 cycles: 48777110 heartbeat IPC: 1.05503 cumulative IPC: 0.977706 (Simulation time: 0 hr 42 min 28 sec) 
Heartbeat CPU 0 instructions: 53000002 cycles: 49771826 heartbeat IPC: 1.00531 cumulative IPC: 0.978331 (Simulation time: 0 hr 43 min 12 sec) 
Heartbeat CPU 0 instructions: 54000001 cycles: 50775150 heartbeat IPC: 0.996686 cumulative IPC: 0.978741 (Simulation time: 0 hr 43 min 56 sec) 
Heartbeat CPU 0 instructions: 55000003 cycles: 51773278 heartbeat IPC: 1.00188 cumulative IPC: 0.979243 (Simulation time: 0 hr 44 min 41 sec) 
Heartbeat CPU 0 instructions: 56000000 cycles: 52780813 heartbeat IPC: 0.992518 cumulative IPC: 0.979528 (Simulation time: 0 hr 45 min 28 sec) 
Heartbeat CPU 0 instructions: 57000001 cycles: 53789242 heartbeat IPC: 0.991642 cumulative IPC: 0.979783 (Simulation time: 0 hr 46 min 8 sec) 
Heartbeat CPU 0 instructions: 58000000 cycles: 54797844 heartbeat IPC: 0.99147 cumulative IPC: 0.980024 (Simulation time: 0 hr 46 min 52 sec) 
Heartbeat CPU 0 instructions: 59000001 cycles: 56455323 heartbeat IPC: 0.603326 cumulative IPC: 0.967693 (Simulation time: 0 hr 47 min 47 sec) 
Heartbeat CPU 0 instructions: 60000000 cycles: 58173522 heartbeat IPC: 0.582004 cumulative IPC: 0.955035 (Simulation time: 0 hr 48 min 36 sec) 
Heartbeat CPU 0 instructions: 61000000 cycles: 60274470 heartbeat IPC: 0.475976 cumulative IPC: 0.936552 (Simulation time: 0 hr 49 min 32 sec) 
Heartbeat CPU 0 instructions: 62000002 cycles: 61905636 heartbeat IPC: 0.61306 cumulative IPC: 0.927144 (Simulation time: 0 hr 50 min 29 sec) 
Heartbeat CPU 0 instructions: 63000001 cycles: 63377300 heartbeat IPC: 0.679502 cumulative IPC: 0.920812 (Simulation time: 0 hr 51 min 27 sec) 
Heartbeat CPU 0 instructions: 64000000 cycles: 64860574 heartbeat IPC: 0.674184 cumulative IPC: 0.914616 (Simulation time: 0 hr 52 min 18 sec) 
Heartbeat CPU 0 instructions: 65000003 cycles: 66355401 heartbeat IPC: 0.668976 cumulative IPC: 0.908551 (Simulation time: 0 hr 53 min 12 sec) 
Heartbeat CPU 0 instructions: 66000000 cycles: 67850977 heartbeat IPC: 0.668637 cumulative IPC: 0.902766 (Simulation time: 0 hr 54 min 5 sec) 
Heartbeat CPU 0 instructions: 67000000 cycles: 69345497 heartbeat IPC: 0.669111 cumulative IPC: 0.897269 (Simulation time: 0 hr 54 min 59 sec) 
Heartbeat CPU 0 instructions: 68000000 cycles: 70839951 heartbeat IPC: 0.669141 cumulative IPC: 0.892026 (Simulation time: 0 hr 55 min 50 sec) 
Heartbeat CPU 0 instructions: 69000000 cycles: 72347195 heartbeat IPC: 0.663463 cumulative IPC: 0.886848 (Simulation time: 0 hr 56 min 44 sec) 
Heartbeat CPU 0 instructions: 70000001 cycles: 73843774 heartbeat IPC: 0.668191 cumulative IPC: 0.882037 (Simulation time: 0 hr 57 min 38 sec) 
Heartbeat CPU 0 instructions: 71000001 cycles: 75337798 heartbeat IPC: 0.669333 cumulative IPC: 0.877466 (Simulation time: 0 hr 58 min 32 sec) 
Heartbeat CPU 0 instructions: 72000000 cycles: 76820748 heartbeat IPC: 0.674331 cumulative IPC: 0.873223 (Simulation time: 0 hr 59 min 25 sec) 
Heartbeat CPU 0 instructions: 73000003 cycles: 78308455 heartbeat IPC: 0.672177 cumulative IPC: 0.869097 (Simulation time: 1 hr 0 min 19 sec) 
Heartbeat CPU 0 instructions: 74000000 cycles: 79805986 heartbeat IPC: 0.667764 cumulative IPC: 0.865022 (Simulation time: 1 hr 1 min 10 sec) 
Heartbeat CPU 0 instructions: 75000001 cycles: 81299956 heartbeat IPC: 0.669358 cumulative IPC: 0.861149 (Simulation time: 1 hr 1 min 59 sec) 
Heartbeat CPU 0 instructions: 76000000 cycles: 82796385 heartbeat IPC: 0.668257 cumulative IPC: 0.857399 (Simulation time: 1 hr 2 min 48 sec) 
Heartbeat CPU 0 instructions: 77000003 cycles: 84290179 heartbeat IPC: 0.669438 cumulative IPC: 0.853821 (Simulation time: 1 hr 3 min 37 sec) 
Heartbeat CPU 0 instructions: 78000001 cycles: 85784871 heartbeat IPC: 0.669033 cumulative IPC: 0.850367 (Simulation time: 1 hr 4 min 21 sec) 
Heartbeat CPU 0 instructions: 79000000 cycles: 87281306 heartbeat IPC: 0.668254 cumulative IPC: 0.847022 (Simulation time: 1 hr 5 min 4 sec) 
Heartbeat CPU 0 instructions: 80000000 cycles: 88771685 heartbeat IPC: 0.67097 cumulative IPC: 0.843859 (Simulation time: 1 hr 5 min 49 sec) 
Heartbeat CPU 0 instructions: 81000001 cycles: 90255624 heartbeat IPC: 0.673883 cumulative IPC: 0.840872 (Simulation time: 1 hr 6 min 30 sec) 
Heartbeat CPU 0 instructions: 82000000 cycles: 91738586 heartbeat IPC: 0.674325 cumulative IPC: 0.837997 (Simulation time: 1 hr 7 min 16 sec) 
Heartbeat CPU 0 instructions: 83000000 cycles: 93221936 heartbeat IPC: 0.67415 cumulative IPC: 0.835216 (Simulation time: 1 hr 8 min 1 sec) 
Heartbeat CPU 0 instructions: 84000000 cycles: 94716842 heartbeat IPC: 0.668938 cumulative IPC: 0.83242 (Simulation time: 1 hr 8 min 43 sec) 
Heartbeat CPU 0 instructions: 85000000 cycles: 96211725 heartbeat IPC: 0.668949 cumulative IPC: 0.829717 (Simulation time: 1 hr 9 min 25 sec) 
Heartbeat CPU 0 instructions: 86000000 cycles: 97705814 heartbeat IPC: 0.669304 cumulative IPC: 0.827108 (Simulation time: 1 hr 10 min 7 sec) 
Heartbeat CPU 0 instructions: 87000000 cycles: 99200663 heartbeat IPC: 0.668964 cumulative IPC: 0.824577 (Simulation time: 1 hr 10 min 47 sec) 
Heartbeat CPU 0 instructions: 88000000 cycles: 100695878 heartbeat IPC: 0.6688 cumulative IPC: 0.822122 (Simulation time: 1 hr 11 min 24 sec) 
Heartbeat CPU 0 instructions: 89000002 cycles: 102191509 heartbeat IPC: 0.668615 cumulative IPC: 0.81974 (Simulation time: 1 hr 12 min 2 sec) 
Heartbeat CPU 0 instructions: 90000000 cycles: 103675848 heartbeat IPC: 0.673699 cumulative IPC: 0.817524 (Simulation time: 1 hr 12 min 38 sec) 
Heartbeat CPU 0 instructions: 91000000 cycles: 105159445 heartbeat IPC: 0.674038 cumulative IPC: 0.815381 (Simulation time: 1 hr 13 min 15 sec) 
Heartbeat CPU 0 instructions: 92000000 cycles: 106643284 heartbeat IPC: 0.673928 cumulative IPC: 0.8133 (Simulation time: 1 hr 13 min 49 sec) 
Heartbeat CPU 0 instructions: 93000000 cycles: 108133023 heartbeat IPC: 0.671259 cumulative IPC: 0.811231 (Simulation time: 1 hr 14 min 23 sec) 
Heartbeat CPU 0 instructions: 94000003 cycles: 109626878 heartbeat IPC: 0.669411 cumulative IPC: 0.809191 (Simulation time: 1 hr 14 min 56 sec) 
Heartbeat CPU 0 instructions: 95000000 cycles: 111122675 heartbeat IPC: 0.668538 cumulative IPC: 0.807193 (Simulation time: 1 hr 15 min 28 sec) 
Heartbeat CPU 0 instructions: 96000000 cycles: 112616629 heartbeat IPC: 0.669365 cumulative IPC: 0.805265 (Simulation time: 1 hr 15 min 58 sec) 
Heartbeat CPU 0 instructions: 97000001 cycles: 114112177 heartbeat IPC: 0.668652 cumulative IPC: 0.803378 (Simulation time: 1 hr 16 min 28 sec) 
Heartbeat CPU 0 instructions: 98000003 cycles: 115607535 heartbeat IPC: 0.668738 cumulative IPC: 0.801544 (Simulation time: 1 hr 16 min 54 sec) 
Heartbeat CPU 0 instructions: 99000000 cycles: 117096636 heartbeat IPC: 0.671544 cumulative IPC: 0.799804 (Simulation time: 1 hr 17 min 19 sec) 
Heartbeat CPU 0 instructions: 100000000 cycles: 118580028 heartbeat IPC: 0.674131 cumulative IPC: 0.798151 (Simulation time: 1 hr 17 min 43 sec) 
Heartbeat CPU 0 instructions: 101000000 cycles: 120063237 heartbeat IPC: 0.674214 cumulative IPC: 0.796542 (Simulation time: 1 hr 18 min 7 sec) 
Heartbeat CPU 0 instructions: 102000003 cycles: 121546820 heartbeat IPC: 0.674046 cumulative IPC: 0.794972 (Simulation time: 1 hr 18 min 32 sec) 
Heartbeat CPU 0 instructions: 103000003 cycles: 123043095 heartbeat IPC: 0.668326 cumulative IPC: 0.793355 (Simulation time: 1 hr 18 min 56 sec) 
Heartbeat CPU 0 instructions: 104000000 cycles: 124537631 heartbeat IPC: 0.669102 cumulative IPC: 0.791791 (Simulation time: 1 hr 19 min 19 sec) 
Heartbeat CPU 0 instructions: 105000000 cycles: 126032445 heartbeat IPC: 0.66898 cumulative IPC: 0.790264 (Simulation time: 1 hr 19 min 41 sec) 
Heartbeat CPU 0 instructions: 106000000 cycles: 127527889 heartbeat IPC: 0.668698 cumulative IPC: 0.78877 (Simulation time: 1 hr 20 min 3 sec) 
Heartbeat CPU 0 instructions: 107000000 cycles: 129023736 heartbeat IPC: 0.668518 cumulative IPC: 0.78731 (Simulation time: 1 hr 20 min 25 sec) 
Heartbeat CPU 0 instructions: 108000000 cycles: 130519315 heartbeat IPC: 0.668637 cumulative IPC: 0.785887 (Simulation time: 1 hr 20 min 47 sec) 
Heartbeat CPU 0 instructions: 109000003 cycles: 132002176 heartbeat IPC: 0.674374 cumulative IPC: 0.784576 (Simulation time: 1 hr 21 min 8 sec) 
Heartbeat CPU 0 instructions: 110000001 cycles: 133485381 heartbeat IPC: 0.674214 cumulative IPC: 0.783294 (Simulation time: 1 hr 21 min 28 sec) 
Finished CPU 0 instructions: 100000000 cycles: 127665953 cummulative IPC: 0.783294 (Simulation time: 1 hr 21 min 28 sec) 

ChampSim completed all CPUs

Region of Interest Statistics

CPU 0 cummulative IPC: 0.783294 instructions: 100000000 cycles: 127665953
LLC TOTAL     ACCESS:    1495389  HIT:     506157  MISS:     989232
LLC LOAD      ACCESS:      90315  HIT:      27081  MISS:      63234
LLC RFO       ACCESS:     219210  HIT:      38552  MISS:     180658
LLC PREFETCH  ACCESS:     749719  HIT:     154015  MISS:     595704
LLC WRITEBACK ACCESS:     436145  HIT:     286509  MISS:     149636
