
*** ChampSim Multicore Out-of-Order Simulator ***

Warmup Instructions: 10000000
Simulation Instructions: 100000000
Configuration: 2
Number of CPUs: 1
LLC sets: 2048
LLC ways: 16
Off-chip DRAM Channels: 1 Width: 64-bit Data Rate: 1600 MT/s

CPU 0 runs /datasets/cs240c-wi22-a00-public/data/Assignment2-gz/cactusADM_1495B.trace.gz
CPU 0 L1D next line prefetcher
CPU 0 L2C IP-based stride prefetcher
Heartbeat CPU 0 instructions: 1000003 cycles: 593383 heartbeat IPC: 1.68526 cumulative IPC: 1.68526 (Simulation time: 0 hr 0 min 46 sec) 
Heartbeat CPU 0 instructions: 2000000 cycles: 1186345 heartbeat IPC: 1.68644 cumulative IPC: 1.68585 (Simulation time: 0 hr 1 min 32 sec) 
Heartbeat CPU 0 instructions: 3000003 cycles: 1779703 heartbeat IPC: 1.68533 cumulative IPC: 1.68568 (Simulation time: 0 hr 2 min 17 sec) 
Heartbeat CPU 0 instructions: 4000000 cycles: 2372522 heartbeat IPC: 1.68685 cumulative IPC: 1.68597 (Simulation time: 0 hr 3 min 8 sec) 
Heartbeat CPU 0 instructions: 5000000 cycles: 2965579 heartbeat IPC: 1.68618 cumulative IPC: 1.68601 (Simulation time: 0 hr 4 min 3 sec) 
Heartbeat CPU 0 instructions: 6000001 cycles: 3558796 heartbeat IPC: 1.68573 cumulative IPC: 1.68596 (Simulation time: 0 hr 5 min 2 sec) 
Heartbeat CPU 0 instructions: 7000000 cycles: 4151738 heartbeat IPC: 1.6865 cumulative IPC: 1.68604 (Simulation time: 0 hr 5 min 55 sec) 
Heartbeat CPU 0 instructions: 8000000 cycles: 4906776 heartbeat IPC: 1.32444 cumulative IPC: 1.6304 (Simulation time: 0 hr 6 min 51 sec) 
Heartbeat CPU 0 instructions: 9000002 cycles: 5499974 heartbeat IPC: 1.68578 cumulative IPC: 1.63637 (Simulation time: 0 hr 7 min 38 sec) 
Heartbeat CPU 0 instructions: 10000002 cycles: 6092897 heartbeat IPC: 1.68656 cumulative IPC: 1.64126 (Simulation time: 0 hr 8 min 23 sec) 

Warmup complete CPU 0 instructions: 10000002 cycles: 6092897 (Simulation time: 0 hr 8 min 23 sec) 

Heartbeat CPU 0 instructions: 11000000 cycles: 7785958 heartbeat IPC: 0.590645 cumulative IPC: 0.590645 (Simulation time: 0 hr 9 min 14 sec) 
Heartbeat CPU 0 instructions: 12000000 cycles: 9529636 heartbeat IPC: 0.5735 cumulative IPC: 0.581946 (Simulation time: 0 hr 10 min 6 sec) 
Heartbeat CPU 0 instructions: 13000002 cycles: 11274983 heartbeat IPC: 0.572953 cumulative IPC: 0.578917 (Simulation time: 0 hr 10 min 58 sec) 
Heartbeat CPU 0 instructions: 14000001 cycles: 13010265 heartbeat IPC: 0.576275 cumulative IPC: 0.578254 (Simulation time: 0 hr 11 min 53 sec) 
Heartbeat CPU 0 instructions: 15000001 cycles: 14667578 heartbeat IPC: 0.603386 cumulative IPC: 0.583112 (Simulation time: 0 hr 12 min 45 sec) 
Heartbeat CPU 0 instructions: 16000000 cycles: 16388802 heartbeat IPC: 0.580981 cumulative IPC: 0.582756 (Simulation time: 0 hr 13 min 36 sec) 
Heartbeat CPU 0 instructions: 17000003 cycles: 18132624 heartbeat IPC: 0.573455 cumulative IPC: 0.581409 (Simulation time: 0 hr 14 min 33 sec) 
Heartbeat CPU 0 instructions: 18000000 cycles: 19878367 heartbeat IPC: 0.57282 cumulative IPC: 0.580321 (Simulation time: 0 hr 15 min 25 sec) 
Heartbeat CPU 0 instructions: 19000002 cycles: 21589168 heartbeat IPC: 0.584523 cumulative IPC: 0.580785 (Simulation time: 0 hr 16 min 16 sec) 
Heartbeat CPU 0 instructions: 20000000 cycles: 23255222 heartbeat IPC: 0.600219 cumulative IPC: 0.582672 (Simulation time: 0 hr 17 min 10 sec) 
Heartbeat CPU 0 instructions: 21000001 cycles: 29682014 heartbeat IPC: 0.155599 cumulative IPC: 0.466317 (Simulation time: 0 hr 18 min 20 sec) 
Heartbeat CPU 0 instructions: 22000000 cycles: 31785543 heartbeat IPC: 0.475391 cumulative IPC: 0.46706 (Simulation time: 0 hr 19 min 17 sec) 
Heartbeat CPU 0 instructions: 23000001 cycles: 33520291 heartbeat IPC: 0.576453 cumulative IPC: 0.473979 (Simulation time: 0 hr 20 min 14 sec) 
Heartbeat CPU 0 instructions: 24000000 cycles: 35179571 heartbeat IPC: 0.60267 cumulative IPC: 0.48132 (Simulation time: 0 hr 21 min 13 sec) 
Heartbeat CPU 0 instructions: 25000002 cycles: 36909210 heartbeat IPC: 0.578156 cumulative IPC: 0.486755 (Simulation time: 0 hr 22 min 10 sec) 
Heartbeat CPU 0 instructions: 26000000 cycles: 38666660 heartbeat IPC: 0.569005 cumulative IPC: 0.491193 (Simulation time: 0 hr 23 min 5 sec) 
Heartbeat CPU 0 instructions: 27000002 cycles: 40408884 heartbeat IPC: 0.57398 cumulative IPC: 0.495396 (Simulation time: 0 hr 24 min 1 sec) 
Heartbeat CPU 0 instructions: 28000000 cycles: 42120486 heartbeat IPC: 0.584247 cumulative IPC: 0.499617 (Simulation time: 0 hr 24 min 59 sec) 
Heartbeat CPU 0 instructions: 29000003 cycles: 43781507 heartbeat IPC: 0.602041 cumulative IPC: 0.504131 (Simulation time: 0 hr 25 min 52 sec) 
Heartbeat CPU 0 instructions: 30000000 cycles: 45551710 heartbeat IPC: 0.564905 cumulative IPC: 0.506858 (Simulation time: 0 hr 26 min 54 sec) 
Heartbeat CPU 0 instructions: 31000003 cycles: 47295677 heartbeat IPC: 0.573407 cumulative IPC: 0.509674 (Simulation time: 0 hr 27 min 57 sec) 
Heartbeat CPU 0 instructions: 32000000 cycles: 49037153 heartbeat IPC: 0.574224 cumulative IPC: 0.512292 (Simulation time: 0 hr 29 min 8 sec) 
Heartbeat CPU 0 instructions: 33000001 cycles: 50719100 heartbeat IPC: 0.59455 cumulative IPC: 0.515392 (Simulation time: 0 hr 30 min 10 sec) 
Heartbeat CPU 0 instructions: 34000002 cycles: 56226008 heartbeat IPC: 0.18159 cumulative IPC: 0.478726 (Simulation time: 0 hr 31 min 26 sec) 
Heartbeat CPU 0 instructions: 35000002 cycles: 59245812 heartbeat IPC: 0.331147 cumulative IPC: 0.470341 (Simulation time: 0 hr 32 min 39 sec) 
Heartbeat CPU 0 instructions: 36000000 cycles: 60987393 heartbeat IPC: 0.57419 cumulative IPC: 0.473636 (Simulation time: 0 hr 33 min 53 sec) 
Heartbeat CPU 0 instructions: 37000001 cycles: 62706466 heartbeat IPC: 0.581709 cumulative IPC: 0.476917 (Simulation time: 0 hr 35 min 5 sec) 
Heartbeat CPU 0 instructions: 38000003 cycles: 64365894 heartbeat IPC: 0.602619 cumulative IPC: 0.480497 (Simulation time: 0 hr 36 min 13 sec) 
Heartbeat CPU 0 instructions: 39000003 cycles: 66102094 heartbeat IPC: 0.575971 cumulative IPC: 0.483259 (Simulation time: 0 hr 37 min 18 sec) 
Heartbeat CPU 0 instructions: 40000000 cycles: 67845680 heartbeat IPC: 0.573529 cumulative IPC: 0.485808 (Simulation time: 0 hr 38 min 24 sec) 
Heartbeat CPU 0 instructions: 41000002 cycles: 69587214 heartbeat IPC: 0.574208 cumulative IPC: 0.488233 (Simulation time: 0 hr 39 min 28 sec) 
Heartbeat CPU 0 instructions: 42000000 cycles: 71272324 heartbeat IPC: 0.593432 cumulative IPC: 0.490952 (Simulation time: 0 hr 40 min 36 sec) 
Heartbeat CPU 0 instructions: 43000000 cycles: 72958828 heartbeat IPC: 0.592943 cumulative IPC: 0.493525 (Simulation time: 0 hr 41 min 45 sec) 
Heartbeat CPU 0 instructions: 44000000 cycles: 74701737 heartbeat IPC: 0.573753 cumulative IPC: 0.495563 (Simulation time: 0 hr 42 min 53 sec) 
Heartbeat CPU 0 instructions: 45000003 cycles: 76445179 heartbeat IPC: 0.57358 cumulative IPC: 0.497496 (Simulation time: 0 hr 43 min 55 sec) 
Heartbeat CPU 0 instructions: 46000002 cycles: 78180800 heartbeat IPC: 0.576162 cumulative IPC: 0.49939 (Simulation time: 0 hr 45 min 2 sec) 
Heartbeat CPU 0 instructions: 47000001 cycles: 82633583 heartbeat IPC: 0.224578 cumulative IPC: 0.483403 (Simulation time: 0 hr 46 min 22 sec) 
Heartbeat CPU 0 instructions: 48000000 cycles: 86661207 heartbeat IPC: 0.248285 cumulative IPC: 0.471649 (Simulation time: 0 hr 47 min 35 sec) 
Heartbeat CPU 0 instructions: 49000000 cycles: 88401248 heartbeat IPC: 0.574699 cumulative IPC: 0.473828 (Simulation time: 0 hr 48 min 39 sec) 
Heartbeat CPU 0 instructions: 50000000 cycles: 90142416 heartbeat IPC: 0.574327 cumulative IPC: 0.47591 (Simulation time: 0 hr 49 min 31 sec) 
Heartbeat CPU 0 instructions: 51000000 cycles: 91832122 heartbeat IPC: 0.591819 cumulative IPC: 0.478194 (Simulation time: 0 hr 50 min 21 sec) 
Heartbeat CPU 0 instructions: 52000000 cycles: 93514502 heartbeat IPC: 0.594396 cumulative IPC: 0.48043 (Simulation time: 0 hr 51 min 13 sec) 
Heartbeat CPU 0 instructions: 53000003 cycles: 95254204 heartbeat IPC: 0.574813 cumulative IPC: 0.482272 (Simulation time: 0 hr 52 min 5 sec) 
Heartbeat CPU 0 instructions: 54000001 cycles: 96995079 heartbeat IPC: 0.574423 cumulative IPC: 0.484037 (Simulation time: 0 hr 52 min 58 sec) 
Heartbeat CPU 0 instructions: 55000000 cycles: 98731792 heartbeat IPC: 0.5758 cumulative IPC: 0.485757 (Simulation time: 0 hr 53 min 55 sec) 
Heartbeat CPU 0 instructions: 56000000 cycles: 100390577 heartbeat IPC: 0.602851 cumulative IPC: 0.487817 (Simulation time: 0 hr 54 min 49 sec) 
Heartbeat CPU 0 instructions: 57000000 cycles: 102102955 heartbeat IPC: 0.583983 cumulative IPC: 0.489532 (Simulation time: 0 hr 55 min 42 sec) 
Heartbeat CPU 0 instructions: 58000002 cycles: 103843541 heartbeat IPC: 0.57452 cumulative IPC: 0.491045 (Simulation time: 0 hr 56 min 33 sec) 
Heartbeat CPU 0 instructions: 59000001 cycles: 105584634 heartbeat IPC: 0.574351 cumulative IPC: 0.492503 (Simulation time: 0 hr 57 min 22 sec) 
Heartbeat CPU 0 instructions: 60000000 cycles: 108996828 heartbeat IPC: 0.293066 cumulative IPC: 0.48589 (Simulation time: 0 hr 58 min 21 sec) 
Heartbeat CPU 0 instructions: 61000001 cycles: 114048658 heartbeat IPC: 0.197948 cumulative IPC: 0.472416 (Simulation time: 0 hr 59 min 17 sec) 
Heartbeat CPU 0 instructions: 62000000 cycles: 115787179 heartbeat IPC: 0.575201 cumulative IPC: 0.474045 (Simulation time: 1 hr 0 min 11 sec) 
Heartbeat CPU 0 instructions: 63000000 cycles: 117529793 heartbeat IPC: 0.573851 cumulative IPC: 0.475605 (Simulation time: 1 hr 1 min 1 sec) 
Heartbeat CPU 0 instructions: 64000000 cycles: 119266777 heartbeat IPC: 0.575711 cumulative IPC: 0.477142 (Simulation time: 1 hr 1 min 46 sec) 
Heartbeat CPU 0 instructions: 65000002 cycles: 120930023 heartbeat IPC: 0.601235 cumulative IPC: 0.478939 (Simulation time: 1 hr 2 min 31 sec) 
Heartbeat CPU 0 instructions: 66000003 cycles: 122638622 heartbeat IPC: 0.585275 cumulative IPC: 0.480498 (Simulation time: 1 hr 3 min 15 sec) 
Heartbeat CPU 0 instructions: 67000001 cycles: 124380669 heartbeat IPC: 0.574036 cumulative IPC: 0.481876 (Simulation time: 1 hr 3 min 54 sec) 
Heartbeat CPU 0 instructions: 68000000 cycles: 126122447 heartbeat IPC: 0.574125 cumulative IPC: 0.483214 (Simulation time: 1 hr 4 min 39 sec) 
Heartbeat CPU 0 instructions: 69000003 cycles: 127841116 heartbeat IPC: 0.581847 cumulative IPC: 0.484607 (Simulation time: 1 hr 5 min 25 sec) 
Heartbeat CPU 0 instructions: 70000000 cycles: 129497044 heartbeat IPC: 0.603889 cumulative IPC: 0.486207 (Simulation time: 1 hr 6 min 8 sec) 
Heartbeat CPU 0 instructions: 71000002 cycles: 131228711 heartbeat IPC: 0.577479 cumulative IPC: 0.48747 (Simulation time: 1 hr 6 min 57 sec) 
Heartbeat CPU 0 instructions: 72000000 cycles: 132970726 heartbeat IPC: 0.574047 cumulative IPC: 0.488659 (Simulation time: 1 hr 7 min 43 sec) 
Heartbeat CPU 0 instructions: 73000001 cycles: 135459690 heartbeat IPC: 0.401774 cumulative IPC: 0.486987 (Simulation time: 1 hr 8 min 34 sec) 
Heartbeat CPU 0 instructions: 74000002 cycles: 141493104 heartbeat IPC: 0.165744 cumulative IPC: 0.472673 (Simulation time: 1 hr 9 min 26 sec) 
Heartbeat CPU 0 instructions: 75000002 cycles: 143195023 heartbeat IPC: 0.587572 cumulative IPC: 0.474099 (Simulation time: 1 hr 10 min 9 sec) 
Heartbeat CPU 0 instructions: 76000000 cycles: 144937463 heartbeat IPC: 0.573907 cumulative IPC: 0.475352 (Simulation time: 1 hr 10 min 52 sec) 
Heartbeat CPU 0 instructions: 77000001 cycles: 146679644 heartbeat IPC: 0.573994 cumulative IPC: 0.476574 (Simulation time: 1 hr 11 min 33 sec) 
Heartbeat CPU 0 instructions: 78000000 cycles: 148405126 heartbeat IPC: 0.579548 cumulative IPC: 0.477823 (Simulation time: 1 hr 12 min 12 sec) 
Heartbeat CPU 0 instructions: 79000003 cycles: 150055427 heartbeat IPC: 0.605952 cumulative IPC: 0.479291 (Simulation time: 1 hr 12 min 53 sec) 
Heartbeat CPU 0 instructions: 80000000 cycles: 151789294 heartbeat IPC: 0.576744 cumulative IPC: 0.480451 (Simulation time: 1 hr 13 min 31 sec) 
Heartbeat CPU 0 instructions: 81000002 cycles: 153532360 heartbeat IPC: 0.573703 cumulative IPC: 0.481554 (Simulation time: 1 hr 14 min 5 sec) 
Heartbeat CPU 0 instructions: 82000000 cycles: 155275470 heartbeat IPC: 0.573686 cumulative IPC: 0.48263 (Simulation time: 1 hr 14 min 40 sec) 
Heartbeat CPU 0 instructions: 83000000 cycles: 156966253 heartbeat IPC: 0.591442 cumulative IPC: 0.483849 (Simulation time: 1 hr 15 min 16 sec) 
Heartbeat CPU 0 instructions: 84000000 cycles: 158645176 heartbeat IPC: 0.59562 cumulative IPC: 0.48508 (Simulation time: 1 hr 15 min 49 sec) 
Heartbeat CPU 0 instructions: 85000003 cycles: 160410170 heartbeat IPC: 0.566576 cumulative IPC: 0.486012 (Simulation time: 1 hr 16 min 23 sec) 
Heartbeat CPU 0 instructions: 86000000 cycles: 162153519 heartbeat IPC: 0.573607 cumulative IPC: 0.48699 (Simulation time: 1 hr 16 min 52 sec) 
Heartbeat CPU 0 instructions: 87000001 cycles: 169037720 heartbeat IPC: 0.14526 cumulative IPC: 0.472553 (Simulation time: 1 hr 17 min 26 sec) 
Heartbeat CPU 0 instructions: 88000000 cycles: 170685909 heartbeat IPC: 0.606726 cumulative IPC: 0.473896 (Simulation time: 1 hr 17 min 52 sec) 
Heartbeat CPU 0 instructions: 89000002 cycles: 172417107 heartbeat IPC: 0.577636 cumulative IPC: 0.474976 (Simulation time: 1 hr 18 min 16 sec) 
Heartbeat CPU 0 instructions: 90000001 cycles: 174186426 heartbeat IPC: 0.565189 cumulative IPC: 0.475926 (Simulation time: 1 hr 18 min 41 sec) 
Heartbeat CPU 0 instructions: 91000002 cycles: 175928343 heartbeat IPC: 0.574081 cumulative IPC: 0.476932 (Simulation time: 1 hr 19 min 6 sec) 
Heartbeat CPU 0 instructions: 92000000 cycles: 177626081 heartbeat IPC: 0.589018 cumulative IPC: 0.478042 (Simulation time: 1 hr 19 min 29 sec) 
Heartbeat CPU 0 instructions: 93000002 cycles: 179300254 heartbeat IPC: 0.597311 cumulative IPC: 0.479194 (Simulation time: 1 hr 19 min 52 sec) 
Heartbeat CPU 0 instructions: 94000002 cycles: 181038054 heartbeat IPC: 0.57544 cumulative IPC: 0.48015 (Simulation time: 1 hr 20 min 14 sec) 
Heartbeat CPU 0 instructions: 95000003 cycles: 182781134 heartbeat IPC: 0.573698 cumulative IPC: 0.481073 (Simulation time: 1 hr 20 min 36 sec) 
Heartbeat CPU 0 instructions: 96000000 cycles: 184519291 heartbeat IPC: 0.57532 cumulative IPC: 0.481991 (Simulation time: 1 hr 20 min 57 sec) 
Heartbeat CPU 0 instructions: 97000003 cycles: 186184328 heartbeat IPC: 0.600589 cumulative IPC: 0.483088 (Simulation time: 1 hr 21 min 18 sec) 
Heartbeat CPU 0 instructions: 98000003 cycles: 187888061 heartbeat IPC: 0.586946 cumulative IPC: 0.484061 (Simulation time: 1 hr 21 min 37 sec) 
Heartbeat CPU 0 instructions: 99000000 cycles: 189628979 heartbeat IPC: 0.574408 cumulative IPC: 0.484918 (Simulation time: 1 hr 21 min 55 sec) 
Heartbeat CPU 0 instructions: 100000000 cycles: 196531033 heartbeat IPC: 0.144884 cumulative IPC: 0.472594 (Simulation time: 1 hr 22 min 15 sec) 
Heartbeat CPU 0 instructions: 101000000 cycles: 198232958 heartbeat IPC: 0.58757 cumulative IPC: 0.473613 (Simulation time: 1 hr 22 min 30 sec) 
Heartbeat CPU 0 instructions: 102000003 cycles: 199903810 heartbeat IPC: 0.598499 cumulative IPC: 0.474689 (Simulation time: 1 hr 22 min 44 sec) 
Heartbeat CPU 0 instructions: 103000000 cycles: 201640897 heartbeat IPC: 0.575675 cumulative IPC: 0.475587 (Simulation time: 1 hr 22 min 58 sec) 
Heartbeat CPU 0 instructions: 104000000 cycles: 203383812 heartbeat IPC: 0.573751 cumulative IPC: 0.476454 (Simulation time: 1 hr 23 min 11 sec) 
Heartbeat CPU 0 instructions: 105000001 cycles: 205121939 heartbeat IPC: 0.575333 cumulative IPC: 0.477317 (Simulation time: 1 hr 23 min 23 sec) 
Heartbeat CPU 0 instructions: 106000000 cycles: 206792694 heartbeat IPC: 0.598531 cumulative IPC: 0.478326 (Simulation time: 1 hr 23 min 34 sec) 
Heartbeat CPU 0 instructions: 107000001 cycles: 208492333 heartbeat IPC: 0.588361 cumulative IPC: 0.47925 (Simulation time: 1 hr 23 min 44 sec) 
Heartbeat CPU 0 instructions: 108000000 cycles: 210234055 heartbeat IPC: 0.574144 cumulative IPC: 0.48006 (Simulation time: 1 hr 23 min 54 sec) 
Heartbeat CPU 0 instructions: 109000002 cycles: 211976043 heartbeat IPC: 0.574058 cumulative IPC: 0.480855 (Simulation time: 1 hr 24 min 3 sec) 
Heartbeat CPU 0 instructions: 110000001 cycles: 213704598 heartbeat IPC: 0.578517 cumulative IPC: 0.481668 (Simulation time: 1 hr 24 min 11 sec) 
Finished CPU 0 instructions: 100000003 cycles: 207611702 cummulative IPC: 0.481668 (Simulation time: 1 hr 24 min 11 sec) 

ChampSim completed all CPUs

Region of Interest Statistics

CPU 0 cummulative IPC: 0.481668 instructions: 100000003 cycles: 207611702
LLC TOTAL     ACCESS:    1113581  HIT:     340414  MISS:     773167
LLC LOAD      ACCESS:      28806  HIT:       1128  MISS:      27678
LLC RFO       ACCESS:     245174  HIT:        290  MISS:     244884
LLC PREFETCH  ACCESS:     594092  HIT:     112329  MISS:     481763
LLC WRITEBACK ACCESS:     245509  HIT:     226667  MISS:      18842
