
*** ChampSim Multicore Out-of-Order Simulator ***

Warmup Instructions: 10000000
Simulation Instructions: 100000000
Configuration: 2
Number of CPUs: 1
LLC sets: 2048
LLC ways: 16
Off-chip DRAM Channels: 1 Width: 64-bit Data Rate: 1600 MT/s

CPU 0 runs /datasets/cs240c-wi22-a00-public/data/Assignment2-gz/milc_409B.trace.gz
CPU 0 L1D next line prefetcher
CPU 0 L2C IP-based stride prefetcher
Heartbeat CPU 0 instructions: 1000002 cycles: 407040 heartbeat IPC: 2.45677 cumulative IPC: 2.45677 (Simulation time: 0 hr 0 min 39 sec) 
Heartbeat CPU 0 instructions: 2000002 cycles: 889867 heartbeat IPC: 2.07114 cumulative IPC: 2.24753 (Simulation time: 0 hr 1 min 23 sec) 
Heartbeat CPU 0 instructions: 3000003 cycles: 1672034 heartbeat IPC: 1.2785 cumulative IPC: 1.79422 (Simulation time: 0 hr 2 min 16 sec) 
Heartbeat CPU 0 instructions: 4000000 cycles: 2454291 heartbeat IPC: 1.27835 cumulative IPC: 1.6298 (Simulation time: 0 hr 3 min 8 sec) 
Heartbeat CPU 0 instructions: 5000000 cycles: 3135412 heartbeat IPC: 1.46817 cumulative IPC: 1.59469 (Simulation time: 0 hr 3 min 56 sec) 
Heartbeat CPU 0 instructions: 6000003 cycles: 3679804 heartbeat IPC: 1.83692 cumulative IPC: 1.63052 (Simulation time: 0 hr 4 min 37 sec) 
Heartbeat CPU 0 instructions: 7000002 cycles: 4224110 heartbeat IPC: 1.8372 cumulative IPC: 1.65715 (Simulation time: 0 hr 5 min 18 sec) 
Heartbeat CPU 0 instructions: 8000000 cycles: 4768518 heartbeat IPC: 1.83685 cumulative IPC: 1.67767 (Simulation time: 0 hr 5 min 58 sec) 
Heartbeat CPU 0 instructions: 9000003 cycles: 5312844 heartbeat IPC: 1.83714 cumulative IPC: 1.69401 (Simulation time: 0 hr 6 min 39 sec) 
Heartbeat CPU 0 instructions: 10000000 cycles: 5857232 heartbeat IPC: 1.83692 cumulative IPC: 1.70729 (Simulation time: 0 hr 7 min 18 sec) 

Warmup complete CPU 0 instructions: 10000002 cycles: 5857233 (Simulation time: 0 hr 7 min 18 sec) 

Heartbeat CPU 0 instructions: 11000002 cycles: 7530795 heartbeat IPC: 0.597529 cumulative IPC: 0.597528 (Simulation time: 0 hr 8 min 2 sec) 
Heartbeat CPU 0 instructions: 12000000 cycles: 9201552 heartbeat IPC: 0.59853 cumulative IPC: 0.598028 (Simulation time: 0 hr 8 min 45 sec) 
Heartbeat CPU 0 instructions: 13000003 cycles: 10870365 heartbeat IPC: 0.59923 cumulative IPC: 0.598428 (Simulation time: 0 hr 9 min 28 sec) 
Heartbeat CPU 0 instructions: 14000002 cycles: 12540991 heartbeat IPC: 0.598577 cumulative IPC: 0.598466 (Simulation time: 0 hr 10 min 14 sec) 
Heartbeat CPU 0 instructions: 15000001 cycles: 14210310 heartbeat IPC: 0.599046 cumulative IPC: 0.598582 (Simulation time: 0 hr 11 min 0 sec) 
Heartbeat CPU 0 instructions: 16000000 cycles: 15883625 heartbeat IPC: 0.597616 cumulative IPC: 0.59842 (Simulation time: 0 hr 11 min 45 sec) 
Heartbeat CPU 0 instructions: 17000002 cycles: 17547630 heartbeat IPC: 0.600961 cumulative IPC: 0.598782 (Simulation time: 0 hr 12 min 30 sec) 
Heartbeat CPU 0 instructions: 18000000 cycles: 19221558 heartbeat IPC: 0.597396 cumulative IPC: 0.598608 (Simulation time: 0 hr 13 min 14 sec) 
Heartbeat CPU 0 instructions: 19000003 cycles: 20894137 heartbeat IPC: 0.597881 cumulative IPC: 0.598528 (Simulation time: 0 hr 13 min 57 sec) 
Heartbeat CPU 0 instructions: 20000000 cycles: 22563790 heartbeat IPC: 0.598925 cumulative IPC: 0.598567 (Simulation time: 0 hr 14 min 42 sec) 
Heartbeat CPU 0 instructions: 21000001 cycles: 24233756 heartbeat IPC: 0.598815 cumulative IPC: 0.59859 (Simulation time: 0 hr 15 min 32 sec) 
Heartbeat CPU 0 instructions: 22000002 cycles: 25907967 heartbeat IPC: 0.597297 cumulative IPC: 0.598482 (Simulation time: 0 hr 16 min 17 sec) 
Heartbeat CPU 0 instructions: 23000002 cycles: 27577337 heartbeat IPC: 0.599028 cumulative IPC: 0.598524 (Simulation time: 0 hr 17 min 5 sec) 
Heartbeat CPU 0 instructions: 24000000 cycles: 29240573 heartbeat IPC: 0.601236 cumulative IPC: 0.598717 (Simulation time: 0 hr 17 min 53 sec) 
Heartbeat CPU 0 instructions: 25000002 cycles: 30910584 heartbeat IPC: 0.5988 cumulative IPC: 0.598722 (Simulation time: 0 hr 18 min 45 sec) 
Heartbeat CPU 0 instructions: 26000000 cycles: 32580246 heartbeat IPC: 0.598922 cumulative IPC: 0.598735 (Simulation time: 0 hr 19 min 34 sec) 
Heartbeat CPU 0 instructions: 27000002 cycles: 34246038 heartbeat IPC: 0.600316 cumulative IPC: 0.598828 (Simulation time: 0 hr 20 min 23 sec) 
Heartbeat CPU 0 instructions: 28000000 cycles: 35914762 heartbeat IPC: 0.599259 cumulative IPC: 0.598852 (Simulation time: 0 hr 21 min 13 sec) 
Heartbeat CPU 0 instructions: 29000002 cycles: 37572075 heartbeat IPC: 0.603388 cumulative IPC: 0.599089 (Simulation time: 0 hr 22 min 1 sec) 
Heartbeat CPU 0 instructions: 30000000 cycles: 39231605 heartbeat IPC: 0.602579 cumulative IPC: 0.599262 (Simulation time: 0 hr 22 min 51 sec) 
Heartbeat CPU 0 instructions: 31000000 cycles: 40900307 heartbeat IPC: 0.599268 cumulative IPC: 0.599262 (Simulation time: 0 hr 23 min 38 sec) 
Heartbeat CPU 0 instructions: 32000000 cycles: 42560675 heartbeat IPC: 0.602276 cumulative IPC: 0.599399 (Simulation time: 0 hr 24 min 28 sec) 
Heartbeat CPU 0 instructions: 33000000 cycles: 44225325 heartbeat IPC: 0.600727 cumulative IPC: 0.599456 (Simulation time: 0 hr 25 min 15 sec) 
Heartbeat CPU 0 instructions: 34000000 cycles: 45890878 heartbeat IPC: 0.600401 cumulative IPC: 0.599496 (Simulation time: 0 hr 26 min 5 sec) 
Heartbeat CPU 0 instructions: 35000002 cycles: 47552541 heartbeat IPC: 0.601808 cumulative IPC: 0.599588 (Simulation time: 0 hr 26 min 57 sec) 
Heartbeat CPU 0 instructions: 36000000 cycles: 49212631 heartbeat IPC: 0.602376 cumulative IPC: 0.599695 (Simulation time: 0 hr 27 min 49 sec) 
Heartbeat CPU 0 instructions: 37000000 cycles: 50875073 heartbeat IPC: 0.601525 cumulative IPC: 0.599762 (Simulation time: 0 hr 28 min 38 sec) 
Heartbeat CPU 0 instructions: 38000002 cycles: 52531716 heartbeat IPC: 0.603632 cumulative IPC: 0.5999 (Simulation time: 0 hr 29 min 27 sec) 
Heartbeat CPU 0 instructions: 39000001 cycles: 54195682 heartbeat IPC: 0.600973 cumulative IPC: 0.599936 (Simulation time: 0 hr 30 min 18 sec) 
Heartbeat CPU 0 instructions: 40000000 cycles: 55858577 heartbeat IPC: 0.60136 cumulative IPC: 0.599984 (Simulation time: 0 hr 31 min 9 sec) 
Heartbeat CPU 0 instructions: 41000002 cycles: 57521912 heartbeat IPC: 0.601203 cumulative IPC: 0.600023 (Simulation time: 0 hr 32 min 1 sec) 
Heartbeat CPU 0 instructions: 42000001 cycles: 59185729 heartbeat IPC: 0.601027 cumulative IPC: 0.600054 (Simulation time: 0 hr 32 min 53 sec) 
Heartbeat CPU 0 instructions: 43000000 cycles: 60845842 heartbeat IPC: 0.602368 cumulative IPC: 0.600124 (Simulation time: 0 hr 33 min 47 sec) 
Heartbeat CPU 0 instructions: 44000000 cycles: 62514275 heartbeat IPC: 0.599365 cumulative IPC: 0.600102 (Simulation time: 0 hr 34 min 37 sec) 
Heartbeat CPU 0 instructions: 45000000 cycles: 64175103 heartbeat IPC: 0.602109 cumulative IPC: 0.600159 (Simulation time: 0 hr 35 min 30 sec) 
Heartbeat CPU 0 instructions: 46000000 cycles: 65839574 heartbeat IPC: 0.600791 cumulative IPC: 0.600177 (Simulation time: 0 hr 36 min 21 sec) 
Heartbeat CPU 0 instructions: 47000002 cycles: 67494545 heartbeat IPC: 0.604241 cumulative IPC: 0.600286 (Simulation time: 0 hr 37 min 15 sec) 
Heartbeat CPU 0 instructions: 48000000 cycles: 69154055 heartbeat IPC: 0.602586 cumulative IPC: 0.600346 (Simulation time: 0 hr 38 min 8 sec) 
Heartbeat CPU 0 instructions: 49000000 cycles: 70814879 heartbeat IPC: 0.602111 cumulative IPC: 0.600391 (Simulation time: 0 hr 39 min 1 sec) 
Heartbeat CPU 0 instructions: 50000001 cycles: 72476483 heartbeat IPC: 0.601829 cumulative IPC: 0.600427 (Simulation time: 0 hr 39 min 57 sec) 
Heartbeat CPU 0 instructions: 51000002 cycles: 74137510 heartbeat IPC: 0.602038 cumulative IPC: 0.600466 (Simulation time: 0 hr 40 min 50 sec) 
Heartbeat CPU 0 instructions: 52000000 cycles: 76055780 heartbeat IPC: 0.521302 cumulative IPC: 0.598303 (Simulation time: 0 hr 41 min 51 sec) 
Heartbeat CPU 0 instructions: 53000001 cycles: 78224093 heartbeat IPC: 0.461188 cumulative IPC: 0.594195 (Simulation time: 0 hr 42 min 51 sec) 
Heartbeat CPU 0 instructions: 54000001 cycles: 80378275 heartbeat IPC: 0.464213 cumulative IPC: 0.590437 (Simulation time: 0 hr 43 min 46 sec) 
Heartbeat CPU 0 instructions: 55000002 cycles: 82549644 heartbeat IPC: 0.460539 cumulative IPC: 0.58676 (Simulation time: 0 hr 44 min 45 sec) 
Heartbeat CPU 0 instructions: 56000000 cycles: 84715797 heartbeat IPC: 0.461647 cumulative IPC: 0.583323 (Simulation time: 0 hr 45 min 39 sec) 
Heartbeat CPU 0 instructions: 57000002 cycles: 86862356 heartbeat IPC: 0.465863 cumulative IPC: 0.58021 (Simulation time: 0 hr 46 min 34 sec) 
Heartbeat CPU 0 instructions: 58000002 cycles: 88902318 heartbeat IPC: 0.490205 cumulative IPC: 0.577999 (Simulation time: 0 hr 47 min 26 sec) 
Heartbeat CPU 0 instructions: 59000001 cycles: 90664514 heartbeat IPC: 0.567473 cumulative IPC: 0.577781 (Simulation time: 0 hr 48 min 12 sec) 
Heartbeat CPU 0 instructions: 60000000 cycles: 92338142 heartbeat IPC: 0.597504 cumulative IPC: 0.578162 (Simulation time: 0 hr 49 min 1 sec) 
Heartbeat CPU 0 instructions: 61000000 cycles: 94009424 heartbeat IPC: 0.598343 cumulative IPC: 0.578545 (Simulation time: 0 hr 49 min 47 sec) 
Heartbeat CPU 0 instructions: 62000000 cycles: 95680572 heartbeat IPC: 0.598391 cumulative IPC: 0.578914 (Simulation time: 0 hr 50 min 35 sec) 
Heartbeat CPU 0 instructions: 63000003 cycles: 97347392 heartbeat IPC: 0.599947 cumulative IPC: 0.579297 (Simulation time: 0 hr 51 min 22 sec) 
Heartbeat CPU 0 instructions: 64000000 cycles: 99016635 heartbeat IPC: 0.599072 cumulative IPC: 0.579652 (Simulation time: 0 hr 52 min 8 sec) 
Heartbeat CPU 0 instructions: 65000002 cycles: 100690659 heartbeat IPC: 0.597364 cumulative IPC: 0.579964 (Simulation time: 0 hr 52 min 56 sec) 
Heartbeat CPU 0 instructions: 66000002 cycles: 102362248 heartbeat IPC: 0.598233 cumulative IPC: 0.580281 (Simulation time: 0 hr 53 min 45 sec) 
Heartbeat CPU 0 instructions: 67000001 cycles: 104028588 heartbeat IPC: 0.600117 cumulative IPC: 0.580617 (Simulation time: 0 hr 54 min 34 sec) 
Heartbeat CPU 0 instructions: 68000000 cycles: 105703376 heartbeat IPC: 0.59709 cumulative IPC: 0.580894 (Simulation time: 0 hr 55 min 23 sec) 
Heartbeat CPU 0 instructions: 69000000 cycles: 107375892 heartbeat IPC: 0.597902 cumulative IPC: 0.581174 (Simulation time: 0 hr 56 min 10 sec) 
Heartbeat CPU 0 instructions: 70000000 cycles: 109048330 heartbeat IPC: 0.597929 cumulative IPC: 0.581446 (Simulation time: 0 hr 56 min 58 sec) 
Heartbeat CPU 0 instructions: 71000002 cycles: 110717461 heartbeat IPC: 0.599115 cumulative IPC: 0.581727 (Simulation time: 0 hr 57 min 45 sec) 
Heartbeat CPU 0 instructions: 72000000 cycles: 112390762 heartbeat IPC: 0.59762 cumulative IPC: 0.581976 (Simulation time: 0 hr 58 min 31 sec) 
Heartbeat CPU 0 instructions: 73000003 cycles: 114059643 heartbeat IPC: 0.599206 cumulative IPC: 0.582242 (Simulation time: 0 hr 59 min 16 sec) 
Heartbeat CPU 0 instructions: 74000002 cycles: 115736560 heartbeat IPC: 0.596332 cumulative IPC: 0.582457 (Simulation time: 1 hr 0 min 4 sec) 
Heartbeat CPU 0 instructions: 75000003 cycles: 117408200 heartbeat IPC: 0.598216 cumulative IPC: 0.582693 (Simulation time: 1 hr 0 min 48 sec) 
Heartbeat CPU 0 instructions: 76000000 cycles: 119081474 heartbeat IPC: 0.597629 cumulative IPC: 0.582914 (Simulation time: 1 hr 1 min 35 sec) 
Heartbeat CPU 0 instructions: 77000003 cycles: 120753926 heartbeat IPC: 0.597926 cumulative IPC: 0.583133 (Simulation time: 1 hr 2 min 18 sec) 
Heartbeat CPU 0 instructions: 78000000 cycles: 122427225 heartbeat IPC: 0.59762 cumulative IPC: 0.583341 (Simulation time: 1 hr 3 min 1 sec) 
Heartbeat CPU 0 instructions: 79000000 cycles: 124100208 heartbeat IPC: 0.597735 cumulative IPC: 0.583544 (Simulation time: 1 hr 3 min 43 sec) 
Heartbeat CPU 0 instructions: 80000000 cycles: 125777198 heartbeat IPC: 0.596307 cumulative IPC: 0.583723 (Simulation time: 1 hr 4 min 24 sec) 
Heartbeat CPU 0 instructions: 81000000 cycles: 127448498 heartbeat IPC: 0.598337 cumulative IPC: 0.583924 (Simulation time: 1 hr 5 min 1 sec) 
Heartbeat CPU 0 instructions: 82000002 cycles: 129117325 heartbeat IPC: 0.599225 cumulative IPC: 0.584131 (Simulation time: 1 hr 5 min 40 sec) 
Heartbeat CPU 0 instructions: 83000003 cycles: 130782815 heartbeat IPC: 0.600425 cumulative IPC: 0.584348 (Simulation time: 1 hr 6 min 20 sec) 
Heartbeat CPU 0 instructions: 84000000 cycles: 132454477 heartbeat IPC: 0.598205 cumulative IPC: 0.584531 (Simulation time: 1 hr 7 min 13 sec) 
Heartbeat CPU 0 instructions: 85000001 cycles: 134120194 heartbeat IPC: 0.600343 cumulative IPC: 0.584736 (Simulation time: 1 hr 8 min 8 sec) 
Heartbeat CPU 0 instructions: 86000002 cycles: 135791141 heartbeat IPC: 0.598464 cumulative IPC: 0.584913 (Simulation time: 1 hr 8 min 55 sec) 
Heartbeat CPU 0 instructions: 87000003 cycles: 137459684 heartbeat IPC: 0.599326 cumulative IPC: 0.585095 (Simulation time: 1 hr 9 min 42 sec) 
Heartbeat CPU 0 instructions: 88000000 cycles: 139129839 heartbeat IPC: 0.598745 cumulative IPC: 0.585267 (Simulation time: 1 hr 10 min 33 sec) 
Heartbeat CPU 0 instructions: 89000001 cycles: 140799016 heartbeat IPC: 0.599098 cumulative IPC: 0.585438 (Simulation time: 1 hr 11 min 23 sec) 
Heartbeat CPU 0 instructions: 90000002 cycles: 142467590 heartbeat IPC: 0.599315 cumulative IPC: 0.585607 (Simulation time: 1 hr 12 min 12 sec) 
Heartbeat CPU 0 instructions: 91000000 cycles: 144131500 heartbeat IPC: 0.600993 cumulative IPC: 0.585792 (Simulation time: 1 hr 13 min 3 sec) 
Heartbeat CPU 0 instructions: 92000000 cycles: 145801064 heartbeat IPC: 0.598959 cumulative IPC: 0.585949 (Simulation time: 1 hr 13 min 50 sec) 
Heartbeat CPU 0 instructions: 93000003 cycles: 147466688 heartbeat IPC: 0.600377 cumulative IPC: 0.586119 (Simulation time: 1 hr 14 min 32 sec) 
Heartbeat CPU 0 instructions: 94000002 cycles: 149133813 heartbeat IPC: 0.599834 cumulative IPC: 0.586279 (Simulation time: 1 hr 15 min 6 sec) 
Heartbeat CPU 0 instructions: 95000003 cycles: 150801115 heartbeat IPC: 0.599772 cumulative IPC: 0.586434 (Simulation time: 1 hr 15 min 37 sec) 
Heartbeat CPU 0 instructions: 96000000 cycles: 152466156 heartbeat IPC: 0.600584 cumulative IPC: 0.586595 (Simulation time: 1 hr 16 min 8 sec) 
Heartbeat CPU 0 instructions: 97000001 cycles: 154132632 heartbeat IPC: 0.600069 cumulative IPC: 0.586746 (Simulation time: 1 hr 16 min 37 sec) 
Heartbeat CPU 0 instructions: 98000002 cycles: 155804304 heartbeat IPC: 0.598204 cumulative IPC: 0.586874 (Simulation time: 1 hr 17 min 1 sec) 
Heartbeat CPU 0 instructions: 99000003 cycles: 157471792 heartbeat IPC: 0.599705 cumulative IPC: 0.587015 (Simulation time: 1 hr 17 min 25 sec) 
Heartbeat CPU 0 instructions: 100000000 cycles: 159136688 heartbeat IPC: 0.600636 cumulative IPC: 0.587163 (Simulation time: 1 hr 17 min 48 sec) 
Heartbeat CPU 0 instructions: 101000001 cycles: 160799885 heartbeat IPC: 0.601252 cumulative IPC: 0.587314 (Simulation time: 1 hr 18 min 12 sec) 
Heartbeat CPU 0 instructions: 102000002 cycles: 162466565 heartbeat IPC: 0.599996 cumulative IPC: 0.587449 (Simulation time: 1 hr 18 min 36 sec) 
Heartbeat CPU 0 instructions: 103000000 cycles: 164132346 heartbeat IPC: 0.600318 cumulative IPC: 0.587584 (Simulation time: 1 hr 18 min 59 sec) 
Heartbeat CPU 0 instructions: 104000000 cycles: 165799892 heartbeat IPC: 0.599684 cumulative IPC: 0.587711 (Simulation time: 1 hr 19 min 22 sec) 
Heartbeat CPU 0 instructions: 105000003 cycles: 167806236 heartbeat IPC: 0.498421 cumulative IPC: 0.586604 (Simulation time: 1 hr 19 min 46 sec) 
Heartbeat CPU 0 instructions: 106000003 cycles: 171956591 heartbeat IPC: 0.240943 cumulative IPC: 0.577967 (Simulation time: 1 hr 20 min 21 sec) 
Heartbeat CPU 0 instructions: 107000000 cycles: 173738945 heartbeat IPC: 0.561054 cumulative IPC: 0.577788 (Simulation time: 1 hr 20 min 39 sec) 
Heartbeat CPU 0 instructions: 108000000 cycles: 175512073 heartbeat IPC: 0.563975 cumulative IPC: 0.577643 (Simulation time: 1 hr 20 min 56 sec) 
Heartbeat CPU 0 instructions: 109000001 cycles: 177290086 heartbeat IPC: 0.562426 cumulative IPC: 0.577486 (Simulation time: 1 hr 21 min 13 sec) 
Heartbeat CPU 0 instructions: 110000001 cycles: 179065202 heartbeat IPC: 0.563343 cumulative IPC: 0.577341 (Simulation time: 1 hr 21 min 29 sec) 
Finished CPU 0 instructions: 100000003 cycles: 173207970 cummulative IPC: 0.577341 (Simulation time: 1 hr 21 min 29 sec) 

ChampSim completed all CPUs

Region of Interest Statistics

CPU 0 cummulative IPC: 0.577341 instructions: 100000003 cycles: 173207970
LLC TOTAL     ACCESS:    3300884  HIT:     743177  MISS:    2557707
LLC LOAD      ACCESS:     973285  HIT:         37  MISS:     973248
LLC RFO       ACCESS:     136847  HIT:          4  MISS:     136843
LLC PREFETCH  ACCESS:    1332663  HIT:      23919  MISS:    1308744
LLC WRITEBACK ACCESS:     858089  HIT:     719217  MISS:     138872
