
*** ChampSim Multicore Out-of-Order Simulator ***

Warmup Instructions: 10000000
Simulation Instructions: 100000000
Configuration: 2
Number of CPUs: 1
LLC sets: 2048
LLC ways: 16
Off-chip DRAM Channels: 1 Width: 64-bit Data Rate: 1600 MT/s

CPU 0 runs /datasets/cs240c-wi22-a00-public/data/Assignment2-gz/calculix_3812B.trace.gz
CPU 0 L1D next line prefetcher
CPU 0 L2C IP-based stride prefetcher
Heartbeat CPU 0 instructions: 1000001 cycles: 478691 heartbeat IPC: 2.08903 cumulative IPC: 2.08903 (Simulation time: 0 hr 0 min 41 sec) 
Heartbeat CPU 0 instructions: 2000002 cycles: 956489 heartbeat IPC: 2.09294 cumulative IPC: 2.09098 (Simulation time: 0 hr 1 min 15 sec) 
Heartbeat CPU 0 instructions: 3000002 cycles: 1435004 heartbeat IPC: 2.0898 cumulative IPC: 2.09059 (Simulation time: 0 hr 1 min 49 sec) 
Heartbeat CPU 0 instructions: 4000000 cycles: 1907487 heartbeat IPC: 2.11647 cumulative IPC: 2.097 (Simulation time: 0 hr 2 min 24 sec) 
Heartbeat CPU 0 instructions: 5000000 cycles: 2356245 heartbeat IPC: 2.22837 cumulative IPC: 2.12202 (Simulation time: 0 hr 2 min 57 sec) 
Heartbeat CPU 0 instructions: 6000003 cycles: 2761627 heartbeat IPC: 2.46682 cumulative IPC: 2.17263 (Simulation time: 0 hr 3 min 23 sec) 
Heartbeat CPU 0 instructions: 7000002 cycles: 3154731 heartbeat IPC: 2.54385 cumulative IPC: 2.21889 (Simulation time: 0 hr 3 min 49 sec) 
Heartbeat CPU 0 instructions: 8000000 cycles: 3547877 heartbeat IPC: 2.54358 cumulative IPC: 2.25487 (Simulation time: 0 hr 4 min 15 sec) 
Heartbeat CPU 0 instructions: 9000000 cycles: 3940861 heartbeat IPC: 2.54463 cumulative IPC: 2.28376 (Simulation time: 0 hr 4 min 40 sec) 
Heartbeat CPU 0 instructions: 10000003 cycles: 4333953 heartbeat IPC: 2.54394 cumulative IPC: 2.30736 (Simulation time: 0 hr 5 min 5 sec) 

Warmup complete CPU 0 instructions: 10000003 cycles: 4333953 (Simulation time: 0 hr 5 min 5 sec) 

Heartbeat CPU 0 instructions: 11000001 cycles: 4784585 heartbeat IPC: 2.2191 cumulative IPC: 2.2191 (Simulation time: 0 hr 5 min 37 sec) 
Heartbeat CPU 0 instructions: 12000000 cycles: 5230312 heartbeat IPC: 2.24352 cumulative IPC: 2.23125 (Simulation time: 0 hr 6 min 7 sec) 
Heartbeat CPU 0 instructions: 13000002 cycles: 5675032 heartbeat IPC: 2.24861 cumulative IPC: 2.237 (Simulation time: 0 hr 6 min 38 sec) 
Heartbeat CPU 0 instructions: 14000000 cycles: 6473781 heartbeat IPC: 1.25196 cumulative IPC: 1.86931 (Simulation time: 0 hr 7 min 14 sec) 
Heartbeat CPU 0 instructions: 15000003 cycles: 7022134 heartbeat IPC: 1.82365 cumulative IPC: 1.85999 (Simulation time: 0 hr 7 min 44 sec) 
Heartbeat CPU 0 instructions: 16000000 cycles: 7562832 heartbeat IPC: 1.84946 cumulative IPC: 1.85823 (Simulation time: 0 hr 8 min 13 sec) 
Heartbeat CPU 0 instructions: 17000001 cycles: 8088825 heartbeat IPC: 1.90117 cumulative IPC: 1.86424 (Simulation time: 0 hr 8 min 43 sec) 
Heartbeat CPU 0 instructions: 18000001 cycles: 8597776 heartbeat IPC: 1.96483 cumulative IPC: 1.87625 (Simulation time: 0 hr 9 min 13 sec) 
Heartbeat CPU 0 instructions: 19000001 cycles: 9107493 heartbeat IPC: 1.96187 cumulative IPC: 1.88539 (Simulation time: 0 hr 9 min 43 sec) 
Heartbeat CPU 0 instructions: 20000000 cycles: 9688336 heartbeat IPC: 1.72163 cumulative IPC: 1.86763 (Simulation time: 0 hr 10 min 14 sec) 
Heartbeat CPU 0 instructions: 21000003 cycles: 10211123 heartbeat IPC: 1.91283 cumulative IPC: 1.87165 (Simulation time: 0 hr 10 min 44 sec) 
Heartbeat CPU 0 instructions: 22000000 cycles: 10739930 heartbeat IPC: 1.89104 cumulative IPC: 1.87325 (Simulation time: 0 hr 11 min 18 sec) 
Heartbeat CPU 0 instructions: 23000001 cycles: 11262662 heartbeat IPC: 1.91303 cumulative IPC: 1.87625 (Simulation time: 0 hr 11 min 48 sec) 
Heartbeat CPU 0 instructions: 24000000 cycles: 11795032 heartbeat IPC: 1.87839 cumulative IPC: 1.8764 (Simulation time: 0 hr 12 min 19 sec) 
Heartbeat CPU 0 instructions: 25000003 cycles: 12351403 heartbeat IPC: 1.79737 cumulative IPC: 1.87092 (Simulation time: 0 hr 12 min 49 sec) 
Heartbeat CPU 0 instructions: 26000003 cycles: 12899331 heartbeat IPC: 1.82506 cumulative IPC: 1.86799 (Simulation time: 0 hr 13 min 18 sec) 
Heartbeat CPU 0 instructions: 27000000 cycles: 13433431 heartbeat IPC: 1.8723 cumulative IPC: 1.86824 (Simulation time: 0 hr 13 min 56 sec) 
Heartbeat CPU 0 instructions: 28000000 cycles: 14073640 heartbeat IPC: 1.56199 cumulative IPC: 1.84811 (Simulation time: 0 hr 14 min 48 sec) 
Heartbeat CPU 0 instructions: 29000002 cycles: 14551797 heartbeat IPC: 2.09137 cumulative IPC: 1.85949 (Simulation time: 0 hr 15 min 35 sec) 
Heartbeat CPU 0 instructions: 30000001 cycles: 15102200 heartbeat IPC: 1.81685 cumulative IPC: 1.85731 (Simulation time: 0 hr 16 min 22 sec) 
Heartbeat CPU 0 instructions: 31000001 cycles: 15649052 heartbeat IPC: 1.82865 cumulative IPC: 1.85593 (Simulation time: 0 hr 17 min 9 sec) 
Heartbeat CPU 0 instructions: 32000000 cycles: 16378246 heartbeat IPC: 1.37138 cumulative IPC: 1.82659 (Simulation time: 0 hr 18 min 0 sec) 
Heartbeat CPU 0 instructions: 33000003 cycles: 17083291 heartbeat IPC: 1.41835 cumulative IPC: 1.80402 (Simulation time: 0 hr 18 min 52 sec) 
Heartbeat CPU 0 instructions: 34000000 cycles: 17783567 heartbeat IPC: 1.428 cumulative IPC: 1.78444 (Simulation time: 0 hr 19 min 48 sec) 
Heartbeat CPU 0 instructions: 35000000 cycles: 18456770 heartbeat IPC: 1.48544 cumulative IPC: 1.77018 (Simulation time: 0 hr 20 min 48 sec) 
Heartbeat CPU 0 instructions: 36000000 cycles: 19098101 heartbeat IPC: 1.55926 cumulative IPC: 1.76102 (Simulation time: 0 hr 21 min 41 sec) 
Heartbeat CPU 0 instructions: 37000002 cycles: 19723918 heartbeat IPC: 1.59791 cumulative IPC: 1.75439 (Simulation time: 0 hr 22 min 33 sec) 
Heartbeat CPU 0 instructions: 38000003 cycles: 20358925 heartbeat IPC: 1.57479 cumulative IPC: 1.74727 (Simulation time: 0 hr 23 min 16 sec) 
Heartbeat CPU 0 instructions: 39000003 cycles: 21122114 heartbeat IPC: 1.31029 cumulative IPC: 1.72741 (Simulation time: 0 hr 23 min 55 sec) 
Heartbeat CPU 0 instructions: 40000000 cycles: 21961963 heartbeat IPC: 1.19069 cumulative IPC: 1.70184 (Simulation time: 0 hr 24 min 29 sec) 
Heartbeat CPU 0 instructions: 41000000 cycles: 22893771 heartbeat IPC: 1.07318 cumulative IPC: 1.67027 (Simulation time: 0 hr 25 min 5 sec) 
Heartbeat CPU 0 instructions: 42000001 cycles: 23495566 heartbeat IPC: 1.6617 cumulative IPC: 1.67001 (Simulation time: 0 hr 25 min 41 sec) 
Heartbeat CPU 0 instructions: 43000000 cycles: 24116381 heartbeat IPC: 1.61078 cumulative IPC: 1.66815 (Simulation time: 0 hr 26 min 12 sec) 
Heartbeat CPU 0 instructions: 44000000 cycles: 24793138 heartbeat IPC: 1.47764 cumulative IPC: 1.66185 (Simulation time: 0 hr 26 min 47 sec) 
Heartbeat CPU 0 instructions: 45000002 cycles: 25467547 heartbeat IPC: 1.48278 cumulative IPC: 1.65613 (Simulation time: 0 hr 27 min 21 sec) 
Heartbeat CPU 0 instructions: 46000002 cycles: 26191137 heartbeat IPC: 1.382 cumulative IPC: 1.64706 (Simulation time: 0 hr 27 min 55 sec) 
Heartbeat CPU 0 instructions: 47000002 cycles: 27026183 heartbeat IPC: 1.19754 cumulative IPC: 1.63051 (Simulation time: 0 hr 28 min 27 sec) 
Heartbeat CPU 0 instructions: 48000000 cycles: 27472056 heartbeat IPC: 2.24279 cumulative IPC: 1.64231 (Simulation time: 0 hr 28 min 57 sec) 
Heartbeat CPU 0 instructions: 49000000 cycles: 27918719 heartbeat IPC: 2.23882 cumulative IPC: 1.65361 (Simulation time: 0 hr 29 min 27 sec) 
Heartbeat CPU 0 instructions: 50000000 cycles: 28393445 heartbeat IPC: 2.10648 cumulative IPC: 1.66255 (Simulation time: 0 hr 29 min 55 sec) 
Heartbeat CPU 0 instructions: 51000000 cycles: 28977225 heartbeat IPC: 1.71297 cumulative IPC: 1.66374 (Simulation time: 0 hr 30 min 26 sec) 
Heartbeat CPU 0 instructions: 52000000 cycles: 29517288 heartbeat IPC: 1.85164 cumulative IPC: 1.66777 (Simulation time: 0 hr 30 min 55 sec) 
Heartbeat CPU 0 instructions: 53000000 cycles: 29973833 heartbeat IPC: 2.19036 cumulative IPC: 1.67707 (Simulation time: 0 hr 31 min 24 sec) 
Heartbeat CPU 0 instructions: 54000003 cycles: 30429150 heartbeat IPC: 2.19628 cumulative IPC: 1.68613 (Simulation time: 0 hr 31 min 54 sec) 
Heartbeat CPU 0 instructions: 55000001 cycles: 30885704 heartbeat IPC: 2.19032 cumulative IPC: 1.6948 (Simulation time: 0 hr 32 min 22 sec) 
Heartbeat CPU 0 instructions: 56000000 cycles: 31341388 heartbeat IPC: 2.1945 cumulative IPC: 1.70323 (Simulation time: 0 hr 32 min 51 sec) 
Heartbeat CPU 0 instructions: 57000003 cycles: 31800598 heartbeat IPC: 2.17766 cumulative IPC: 1.71117 (Simulation time: 0 hr 33 min 21 sec) 
Heartbeat CPU 0 instructions: 58000002 cycles: 32268737 heartbeat IPC: 2.13612 cumulative IPC: 1.71829 (Simulation time: 0 hr 33 min 50 sec) 
Heartbeat CPU 0 instructions: 59000001 cycles: 32831551 heartbeat IPC: 1.77678 cumulative IPC: 1.71944 (Simulation time: 0 hr 34 min 20 sec) 
Heartbeat CPU 0 instructions: 60000000 cycles: 33360346 heartbeat IPC: 1.89109 cumulative IPC: 1.72257 (Simulation time: 0 hr 34 min 50 sec) 
Heartbeat CPU 0 instructions: 61000003 cycles: 33899166 heartbeat IPC: 1.85591 cumulative IPC: 1.725 (Simulation time: 0 hr 35 min 20 sec) 
Heartbeat CPU 0 instructions: 62000002 cycles: 34433679 heartbeat IPC: 1.87086 cumulative IPC: 1.72759 (Simulation time: 0 hr 35 min 53 sec) 
Heartbeat CPU 0 instructions: 63000003 cycles: 34973381 heartbeat IPC: 1.85288 cumulative IPC: 1.7298 (Simulation time: 0 hr 36 min 23 sec) 
Heartbeat CPU 0 instructions: 64000000 cycles: 35510320 heartbeat IPC: 1.8624 cumulative IPC: 1.73208 (Simulation time: 0 hr 36 min 52 sec) 
Heartbeat CPU 0 instructions: 65000000 cycles: 36190772 heartbeat IPC: 1.46961 cumulative IPC: 1.72647 (Simulation time: 0 hr 37 min 24 sec) 
Heartbeat CPU 0 instructions: 66000002 cycles: 36754671 heartbeat IPC: 1.77337 cumulative IPC: 1.72729 (Simulation time: 0 hr 37 min 55 sec) 
Heartbeat CPU 0 instructions: 67000002 cycles: 37266391 heartbeat IPC: 1.95419 cumulative IPC: 1.73082 (Simulation time: 0 hr 38 min 24 sec) 
Heartbeat CPU 0 instructions: 68000000 cycles: 37767765 heartbeat IPC: 1.99452 cumulative IPC: 1.73477 (Simulation time: 0 hr 38 min 54 sec) 
Heartbeat CPU 0 instructions: 69000003 cycles: 38316144 heartbeat IPC: 1.82356 cumulative IPC: 1.7362 (Simulation time: 0 hr 39 min 24 sec) 
Heartbeat CPU 0 instructions: 70000003 cycles: 38831667 heartbeat IPC: 1.93978 cumulative IPC: 1.73925 (Simulation time: 0 hr 39 min 54 sec) 
Heartbeat CPU 0 instructions: 71000000 cycles: 39354317 heartbeat IPC: 1.91332 cumulative IPC: 1.74184 (Simulation time: 0 hr 40 min 24 sec) 
Heartbeat CPU 0 instructions: 72000000 cycles: 39871808 heartbeat IPC: 1.9324 cumulative IPC: 1.74462 (Simulation time: 0 hr 40 min 53 sec) 
Heartbeat CPU 0 instructions: 73000001 cycles: 40423145 heartbeat IPC: 1.81377 cumulative IPC: 1.74567 (Simulation time: 0 hr 41 min 24 sec) 
Heartbeat CPU 0 instructions: 74000002 cycles: 41039928 heartbeat IPC: 1.62132 cumulative IPC: 1.74359 (Simulation time: 0 hr 41 min 56 sec) 
Heartbeat CPU 0 instructions: 75000000 cycles: 41575797 heartbeat IPC: 1.86612 cumulative IPC: 1.74535 (Simulation time: 0 hr 42 min 25 sec) 
Heartbeat CPU 0 instructions: 76000000 cycles: 42302622 heartbeat IPC: 1.37585 cumulative IPC: 1.73828 (Simulation time: 0 hr 43 min 0 sec) 
Heartbeat CPU 0 instructions: 77000000 cycles: 43023607 heartbeat IPC: 1.38699 cumulative IPC: 1.73173 (Simulation time: 0 hr 43 min 36 sec) 
Heartbeat CPU 0 instructions: 78000003 cycles: 43742188 heartbeat IPC: 1.39164 cumulative IPC: 1.72553 (Simulation time: 0 hr 44 min 13 sec) 
Heartbeat CPU 0 instructions: 79000000 cycles: 44453089 heartbeat IPC: 1.40666 cumulative IPC: 1.71988 (Simulation time: 0 hr 44 min 47 sec) 
Heartbeat CPU 0 instructions: 80000000 cycles: 45138171 heartbeat IPC: 1.45968 cumulative IPC: 1.71551 (Simulation time: 0 hr 45 min 23 sec) 
Heartbeat CPU 0 instructions: 81000001 cycles: 45802503 heartbeat IPC: 1.50527 cumulative IPC: 1.71214 (Simulation time: 0 hr 45 min 59 sec) 
Heartbeat CPU 0 instructions: 82000002 cycles: 46445461 heartbeat IPC: 1.55531 cumulative IPC: 1.70975 (Simulation time: 0 hr 46 min 34 sec) 
Heartbeat CPU 0 instructions: 83000002 cycles: 47296620 heartbeat IPC: 1.17487 cumulative IPC: 1.69915 (Simulation time: 0 hr 47 min 8 sec) 
Heartbeat CPU 0 instructions: 84000000 cycles: 47884591 heartbeat IPC: 1.70076 cumulative IPC: 1.69917 (Simulation time: 0 hr 47 min 38 sec) 
Heartbeat CPU 0 instructions: 85000000 cycles: 48342890 heartbeat IPC: 2.18198 cumulative IPC: 1.7042 (Simulation time: 0 hr 48 min 6 sec) 
Heartbeat CPU 0 instructions: 86000001 cycles: 48798540 heartbeat IPC: 2.19467 cumulative IPC: 1.70923 (Simulation time: 0 hr 48 min 33 sec) 
Heartbeat CPU 0 instructions: 87000002 cycles: 49257173 heartbeat IPC: 2.18039 cumulative IPC: 1.71404 (Simulation time: 0 hr 49 min 1 sec) 
Heartbeat CPU 0 instructions: 88000000 cycles: 49711721 heartbeat IPC: 2.19998 cumulative IPC: 1.7189 (Simulation time: 0 hr 49 min 34 sec) 
Heartbeat CPU 0 instructions: 89000003 cycles: 50165523 heartbeat IPC: 2.20361 cumulative IPC: 1.7237 (Simulation time: 0 hr 50 min 5 sec) 
Heartbeat CPU 0 instructions: 90000003 cycles: 50620044 heartbeat IPC: 2.20012 cumulative IPC: 1.72838 (Simulation time: 0 hr 50 min 35 sec) 
Heartbeat CPU 0 instructions: 91000003 cycles: 51083195 heartbeat IPC: 2.15912 cumulative IPC: 1.73265 (Simulation time: 0 hr 51 min 3 sec) 
Heartbeat CPU 0 instructions: 92000000 cycles: 51542387 heartbeat IPC: 2.17773 cumulative IPC: 1.73698 (Simulation time: 0 hr 51 min 33 sec) 
Heartbeat CPU 0 instructions: 93000000 cycles: 51989800 heartbeat IPC: 2.23507 cumulative IPC: 1.74165 (Simulation time: 0 hr 51 min 58 sec) 
Heartbeat CPU 0 instructions: 94000003 cycles: 52436497 heartbeat IPC: 2.23866 cumulative IPC: 1.74627 (Simulation time: 0 hr 52 min 24 sec) 
Heartbeat CPU 0 instructions: 95000001 cycles: 53040583 heartbeat IPC: 1.65539 cumulative IPC: 1.74514 (Simulation time: 0 hr 52 min 54 sec) 
Heartbeat CPU 0 instructions: 96000000 cycles: 53595748 heartbeat IPC: 1.80126 cumulative IPC: 1.74577 (Simulation time: 0 hr 53 min 23 sec) 
Heartbeat CPU 0 instructions: 97000000 cycles: 54095512 heartbeat IPC: 2.00094 cumulative IPC: 1.74834 (Simulation time: 0 hr 53 min 50 sec) 
Heartbeat CPU 0 instructions: 98000003 cycles: 54596324 heartbeat IPC: 1.99676 cumulative IPC: 1.75081 (Simulation time: 0 hr 54 min 21 sec) 
Heartbeat CPU 0 instructions: 99000000 cycles: 55095252 heartbeat IPC: 2.00429 cumulative IPC: 1.7533 (Simulation time: 0 hr 54 min 49 sec) 
Heartbeat CPU 0 instructions: 100000000 cycles: 55596019 heartbeat IPC: 1.99694 cumulative IPC: 1.75568 (Simulation time: 0 hr 55 min 18 sec) 
Heartbeat CPU 0 instructions: 101000003 cycles: 56092054 heartbeat IPC: 2.01599 cumulative IPC: 1.75818 (Simulation time: 0 hr 55 min 45 sec) 
Heartbeat CPU 0 instructions: 102000002 cycles: 56644013 heartbeat IPC: 1.81173 cumulative IPC: 1.75874 (Simulation time: 0 hr 56 min 13 sec) 
Heartbeat CPU 0 instructions: 103000000 cycles: 57199503 heartbeat IPC: 1.80021 cumulative IPC: 1.75918 (Simulation time: 0 hr 56 min 42 sec) 
Heartbeat CPU 0 instructions: 104000000 cycles: 57754845 heartbeat IPC: 1.80069 cumulative IPC: 1.75961 (Simulation time: 0 hr 57 min 8 sec) 
Heartbeat CPU 0 instructions: 105000000 cycles: 58316613 heartbeat IPC: 1.78009 cumulative IPC: 1.75982 (Simulation time: 0 hr 57 min 36 sec) 
Heartbeat CPU 0 instructions: 106000003 cycles: 58875202 heartbeat IPC: 1.79023 cumulative IPC: 1.76014 (Simulation time: 0 hr 58 min 5 sec) 
Heartbeat CPU 0 instructions: 107000000 cycles: 59435987 heartbeat IPC: 1.78321 cumulative IPC: 1.76037 (Simulation time: 0 hr 58 min 31 sec) 
Heartbeat CPU 0 instructions: 108000000 cycles: 60043909 heartbeat IPC: 1.64495 cumulative IPC: 1.75911 (Simulation time: 0 hr 59 min 0 sec) 
Heartbeat CPU 0 instructions: 109000002 cycles: 60690855 heartbeat IPC: 1.54573 cumulative IPC: 1.75666 (Simulation time: 0 hr 59 min 29 sec) 
Heartbeat CPU 0 instructions: 110000003 cycles: 61180069 heartbeat IPC: 2.0441 cumulative IPC: 1.75914 (Simulation time: 0 hr 59 min 58 sec) 
Finished CPU 0 instructions: 100000000 cycles: 56846116 cummulative IPC: 1.75914 (Simulation time: 0 hr 59 min 58 sec) 

ChampSim completed all CPUs

Region of Interest Statistics

CPU 0 cummulative IPC: 1.75914 instructions: 100000000 cycles: 56846116
LLC TOTAL     ACCESS:    1161483  HIT:     905284  MISS:     256199
LLC LOAD      ACCESS:     133731  HIT:     128695  MISS:       5036
LLC RFO       ACCESS:      47550  HIT:      19935  MISS:      27615
LLC PREFETCH  ACCESS:     680382  HIT:     462301  MISS:     218081
LLC WRITEBACK ACCESS:     299820  HIT:     294353  MISS:       5467
