
*** ChampSim Multicore Out-of-Order Simulator ***

Warmup Instructions: 10000000
Simulation Instructions: 100000000
Configuration: 2
Number of CPUs: 1
LLC sets: 2048
LLC ways: 16
Off-chip DRAM Channels: 1 Width: 64-bit Data Rate: 1600 MT/s

CPU 0 runs /datasets/cs240c-wi22-a00-public/data/Assignment2-gz/sphinx3_883B.trace.gz
CPU 0 L1D next line prefetcher
CPU 0 L2C IP-based stride prefetcher
Heartbeat CPU 0 instructions: 1000003 cycles: 414403 heartbeat IPC: 2.41312 cumulative IPC: 2.41312 (Simulation time: 0 hr 0 min 49 sec) 
Heartbeat CPU 0 instructions: 2000000 cycles: 823987 heartbeat IPC: 2.44149 cumulative IPC: 2.42722 (Simulation time: 0 hr 1 min 47 sec) 
Heartbeat CPU 0 instructions: 3000003 cycles: 1298906 heartbeat IPC: 2.10563 cumulative IPC: 2.30964 (Simulation time: 0 hr 2 min 35 sec) 
Heartbeat CPU 0 instructions: 4000000 cycles: 1637797 heartbeat IPC: 2.95079 cumulative IPC: 2.44231 (Simulation time: 0 hr 3 min 20 sec) 
Heartbeat CPU 0 instructions: 5000000 cycles: 1992471 heartbeat IPC: 2.81949 cumulative IPC: 2.50945 (Simulation time: 0 hr 4 min 2 sec) 
Heartbeat CPU 0 instructions: 6000003 cycles: 2406859 heartbeat IPC: 2.4132 cumulative IPC: 2.49288 (Simulation time: 0 hr 4 min 52 sec) 
Heartbeat CPU 0 instructions: 7000002 cycles: 2815664 heartbeat IPC: 2.44615 cumulative IPC: 2.48609 (Simulation time: 0 hr 5 min 43 sec) 
Heartbeat CPU 0 instructions: 8000000 cycles: 3292122 heartbeat IPC: 2.09882 cumulative IPC: 2.43004 (Simulation time: 0 hr 6 min 35 sec) 
Heartbeat CPU 0 instructions: 9000001 cycles: 3631124 heartbeat IPC: 2.94984 cumulative IPC: 2.47857 (Simulation time: 0 hr 7 min 23 sec) 
Heartbeat CPU 0 instructions: 10000000 cycles: 3985187 heartbeat IPC: 2.82435 cumulative IPC: 2.50929 (Simulation time: 0 hr 8 min 9 sec) 

Warmup complete CPU 0 instructions: 10000004 cycles: 3985188 (Simulation time: 0 hr 8 min 9 sec) 

Heartbeat CPU 0 instructions: 11000002 cycles: 5506841 heartbeat IPC: 0.657181 cumulative IPC: 0.657179 (Simulation time: 0 hr 9 min 5 sec) 
Heartbeat CPU 0 instructions: 12000000 cycles: 7000077 heartbeat IPC: 0.669685 cumulative IPC: 0.663373 (Simulation time: 0 hr 9 min 56 sec) 
Heartbeat CPU 0 instructions: 13000001 cycles: 8166487 heartbeat IPC: 0.857332 cumulative IPC: 0.71748 (Simulation time: 0 hr 10 min 35 sec) 
Heartbeat CPU 0 instructions: 14000002 cycles: 9091523 heartbeat IPC: 1.08104 cumulative IPC: 0.78334 (Simulation time: 0 hr 11 min 14 sec) 
Heartbeat CPU 0 instructions: 15000000 cycles: 10050532 heartbeat IPC: 1.04274 cumulative IPC: 0.824355 (Simulation time: 0 hr 11 min 57 sec) 
Heartbeat CPU 0 instructions: 16000000 cycles: 11530992 heartbeat IPC: 0.675466 cumulative IPC: 0.795143 (Simulation time: 0 hr 12 min 47 sec) 
Heartbeat CPU 0 instructions: 17000000 cycles: 12982211 heartbeat IPC: 0.689076 cumulative IPC: 0.778035 (Simulation time: 0 hr 13 min 45 sec) 
Heartbeat CPU 0 instructions: 18000002 cycles: 14231098 heartbeat IPC: 0.800715 cumulative IPC: 0.780799 (Simulation time: 0 hr 14 min 39 sec) 
Heartbeat CPU 0 instructions: 19000003 cycles: 15151894 heartbeat IPC: 1.08602 cumulative IPC: 0.805967 (Simulation time: 0 hr 15 min 32 sec) 
Heartbeat CPU 0 instructions: 20000000 cycles: 16037895 heartbeat IPC: 1.12866 cumulative IPC: 0.829689 (Simulation time: 0 hr 16 min 22 sec) 
Heartbeat CPU 0 instructions: 21000000 cycles: 17523611 heartbeat IPC: 0.673076 cumulative IPC: 0.812502 (Simulation time: 0 hr 17 min 11 sec) 
Heartbeat CPU 0 instructions: 22000002 cycles: 19028040 heartbeat IPC: 0.664705 cumulative IPC: 0.797721 (Simulation time: 0 hr 17 min 52 sec) 
Heartbeat CPU 0 instructions: 23000001 cycles: 20494366 heartbeat IPC: 0.681976 cumulative IPC: 0.787441 (Simulation time: 0 hr 18 min 27 sec) 
Heartbeat CPU 0 instructions: 24000000 cycles: 21414224 heartbeat IPC: 1.08712 cumulative IPC: 0.803257 (Simulation time: 0 hr 19 min 3 sec) 
Heartbeat CPU 0 instructions: 25000003 cycles: 22299757 heartbeat IPC: 1.12927 cumulative IPC: 0.81902 (Simulation time: 0 hr 19 min 35 sec) 
Heartbeat CPU 0 instructions: 26000001 cycles: 23495150 heartbeat IPC: 0.836543 cumulative IPC: 0.820094 (Simulation time: 0 hr 20 min 10 sec) 
Heartbeat CPU 0 instructions: 27000000 cycles: 24985804 heartbeat IPC: 0.670846 cumulative IPC: 0.8095 (Simulation time: 0 hr 20 min 48 sec) 
Heartbeat CPU 0 instructions: 28000000 cycles: 26471704 heartbeat IPC: 0.672993 cumulative IPC: 0.80048 (Simulation time: 0 hr 21 min 26 sec) 
Heartbeat CPU 0 instructions: 29000000 cycles: 27490126 heartbeat IPC: 0.981911 cumulative IPC: 0.808341 (Simulation time: 0 hr 22 min 0 sec) 
Heartbeat CPU 0 instructions: 30000002 cycles: 28370977 heartbeat IPC: 1.13527 cumulative IPC: 0.82015 (Simulation time: 0 hr 22 min 34 sec) 
Heartbeat CPU 0 instructions: 31000003 cycles: 29448601 heartbeat IPC: 0.927968 cumulative IPC: 0.824713 (Simulation time: 0 hr 23 min 9 sec) 
Heartbeat CPU 0 instructions: 32000000 cycles: 30927286 heartbeat IPC: 0.676275 cumulative IPC: 0.816566 (Simulation time: 0 hr 23 min 45 sec) 
Heartbeat CPU 0 instructions: 33000000 cycles: 32355285 heartbeat IPC: 0.700281 cumulative IPC: 0.810713 (Simulation time: 0 hr 24 min 22 sec) 
Heartbeat CPU 0 instructions: 34000000 cycles: 33487457 heartbeat IPC: 0.883258 cumulative IPC: 0.813497 (Simulation time: 0 hr 24 min 57 sec) 
Heartbeat CPU 0 instructions: 35000003 cycles: 34366247 heartbeat IPC: 1.13793 cumulative IPC: 0.822881 (Simulation time: 0 hr 25 min 33 sec) 
Heartbeat CPU 0 instructions: 36000000 cycles: 35401307 heartbeat IPC: 0.966125 cumulative IPC: 0.8276 (Simulation time: 0 hr 26 min 6 sec) 
Heartbeat CPU 0 instructions: 37000001 cycles: 36889674 heartbeat IPC: 0.671878 cumulative IPC: 0.820557 (Simulation time: 0 hr 26 min 44 sec) 
Heartbeat CPU 0 instructions: 38000000 cycles: 38316661 heartbeat IPC: 0.700777 cumulative IPC: 0.815578 (Simulation time: 0 hr 27 min 18 sec) 
Heartbeat CPU 0 instructions: 39000003 cycles: 39428655 heartbeat IPC: 0.899288 cumulative IPC: 0.818204 (Simulation time: 0 hr 27 min 54 sec) 
Heartbeat CPU 0 instructions: 40000000 cycles: 40303148 heartbeat IPC: 1.14352 cumulative IPC: 0.826037 (Simulation time: 0 hr 28 min 28 sec) 
Heartbeat CPU 0 instructions: 41000003 cycles: 41325851 heartbeat IPC: 0.977804 cumulative IPC: 0.830194 (Simulation time: 0 hr 29 min 2 sec) 
Heartbeat CPU 0 instructions: 42000000 cycles: 42817653 heartbeat IPC: 0.670328 cumulative IPC: 0.824053 (Simulation time: 0 hr 29 min 38 sec) 
Heartbeat CPU 0 instructions: 43000003 cycles: 44271792 heartbeat IPC: 0.687694 cumulative IPC: 0.819131 (Simulation time: 0 hr 30 min 15 sec) 
Heartbeat CPU 0 instructions: 44000000 cycles: 45321120 heartbeat IPC: 0.952988 cumulative IPC: 0.822529 (Simulation time: 0 hr 30 min 50 sec) 
Heartbeat CPU 0 instructions: 45000002 cycles: 46196826 heartbeat IPC: 1.14194 cumulative IPC: 0.829155 (Simulation time: 0 hr 31 min 23 sec) 
Heartbeat CPU 0 instructions: 46000001 cycles: 47250987 heartbeat IPC: 0.948621 cumulative IPC: 0.832066 (Simulation time: 0 hr 31 min 57 sec) 
Heartbeat CPU 0 instructions: 47000002 cycles: 48725920 heartbeat IPC: 0.677998 cumulative IPC: 0.826987 (Simulation time: 0 hr 32 min 35 sec) 
Heartbeat CPU 0 instructions: 48000000 cycles: 50197757 heartbeat IPC: 0.679422 cumulative IPC: 0.822287 (Simulation time: 0 hr 33 min 11 sec) 
Heartbeat CPU 0 instructions: 49000001 cycles: 51162255 heartbeat IPC: 1.03681 cumulative IPC: 0.826673 (Simulation time: 0 hr 33 min 46 sec) 
Heartbeat CPU 0 instructions: 50000000 cycles: 52027814 heartbeat IPC: 1.15532 cumulative IPC: 0.832594 (Simulation time: 0 hr 34 min 22 sec) 
Heartbeat CPU 0 instructions: 51000003 cycles: 53110974 heartbeat IPC: 0.923227 cumulative IPC: 0.834592 (Simulation time: 0 hr 34 min 59 sec) 
Heartbeat CPU 0 instructions: 52000000 cycles: 54606822 heartbeat IPC: 0.668515 cumulative IPC: 0.829685 (Simulation time: 0 hr 35 min 34 sec) 
Heartbeat CPU 0 instructions: 53000000 cycles: 56303520 heartbeat IPC: 0.58938 cumulative IPC: 0.821892 (Simulation time: 0 hr 36 min 14 sec) 
Heartbeat CPU 0 instructions: 54000003 cycles: 57596974 heartbeat IPC: 0.773126 cumulative IPC: 0.820715 (Simulation time: 0 hr 36 min 52 sec) 
Heartbeat CPU 0 instructions: 55000003 cycles: 58500596 heartbeat IPC: 1.10666 cumulative IPC: 0.825455 (Simulation time: 0 hr 37 min 25 sec) 
Heartbeat CPU 0 instructions: 56000000 cycles: 59395080 heartbeat IPC: 1.11796 cumulative IPC: 0.830177 (Simulation time: 0 hr 37 min 59 sec) 
Heartbeat CPU 0 instructions: 57000002 cycles: 60548752 heartbeat IPC: 0.866799 cumulative IPC: 0.830924 (Simulation time: 0 hr 38 min 36 sec) 
Heartbeat CPU 0 instructions: 58000001 cycles: 61583569 heartbeat IPC: 0.966353 cumulative IPC: 0.833357 (Simulation time: 0 hr 39 min 12 sec) 
Heartbeat CPU 0 instructions: 59000003 cycles: 62463288 heartbeat IPC: 1.13673 cumulative IPC: 0.83792 (Simulation time: 0 hr 39 min 49 sec) 
Heartbeat CPU 0 instructions: 60000000 cycles: 63358978 heartbeat IPC: 1.11645 cumulative IPC: 0.842122 (Simulation time: 0 hr 40 min 26 sec) 
Heartbeat CPU 0 instructions: 61000001 cycles: 64496166 heartbeat IPC: 0.879363 cumulative IPC: 0.842822 (Simulation time: 0 hr 41 min 2 sec) 
Heartbeat CPU 0 instructions: 62000001 cycles: 65366192 heartbeat IPC: 1.14939 cumulative IPC: 0.847168 (Simulation time: 0 hr 41 min 35 sec) 
Heartbeat CPU 0 instructions: 63000003 cycles: 66211748 heartbeat IPC: 1.18266 cumulative IPC: 0.851726 (Simulation time: 0 hr 42 min 11 sec) 
Heartbeat CPU 0 instructions: 64000000 cycles: 67406626 heartbeat IPC: 0.836903 cumulative IPC: 0.851447 (Simulation time: 0 hr 42 min 47 sec) 
Heartbeat CPU 0 instructions: 65000003 cycles: 68289447 heartbeat IPC: 1.13274 cumulative IPC: 0.855309 (Simulation time: 0 hr 43 min 21 sec) 
Heartbeat CPU 0 instructions: 66000002 cycles: 69142279 heartbeat IPC: 1.17256 cumulative IPC: 0.859461 (Simulation time: 0 hr 43 min 56 sec) 
Heartbeat CPU 0 instructions: 67000000 cycles: 70351856 heartbeat IPC: 0.826734 cumulative IPC: 0.858865 (Simulation time: 0 hr 44 min 32 sec) 
Heartbeat CPU 0 instructions: 68000000 cycles: 71952328 heartbeat IPC: 0.624816 cumulative IPC: 0.853354 (Simulation time: 0 hr 45 min 12 sec) 
Heartbeat CPU 0 instructions: 69000003 cycles: 72819574 heartbeat IPC: 1.15308 cumulative IPC: 0.85713 (Simulation time: 0 hr 45 min 44 sec) 
Heartbeat CPU 0 instructions: 70000000 cycles: 73681659 heartbeat IPC: 1.15997 cumulative IPC: 0.860876 (Simulation time: 0 hr 46 min 20 sec) 
Heartbeat CPU 0 instructions: 71000000 cycles: 74790838 heartbeat IPC: 0.901568 cumulative IPC: 0.861513 (Simulation time: 0 hr 46 min 55 sec) 
Heartbeat CPU 0 instructions: 72000000 cycles: 76197085 heartbeat IPC: 0.711113 cumulative IPC: 0.858584 (Simulation time: 0 hr 47 min 31 sec) 
Heartbeat CPU 0 instructions: 73000000 cycles: 77062144 heartbeat IPC: 1.15599 cumulative IPC: 0.862105 (Simulation time: 0 hr 48 min 5 sec) 
Heartbeat CPU 0 instructions: 74000000 cycles: 77929905 heartbeat IPC: 1.15239 cumulative IPC: 0.865511 (Simulation time: 0 hr 48 min 44 sec) 
Heartbeat CPU 0 instructions: 75000000 cycles: 79083283 heartbeat IPC: 0.867018 cumulative IPC: 0.865535 (Simulation time: 0 hr 49 min 22 sec) 
Heartbeat CPU 0 instructions: 76000000 cycles: 80338721 heartbeat IPC: 0.796535 cumulative IPC: 0.8644 (Simulation time: 0 hr 49 min 58 sec) 
Heartbeat CPU 0 instructions: 77000003 cycles: 81219748 heartbeat IPC: 1.13504 cumulative IPC: 0.867487 (Simulation time: 0 hr 50 min 33 sec) 
Heartbeat CPU 0 instructions: 78000000 cycles: 82064392 heartbeat IPC: 1.18393 cumulative IPC: 0.87091 (Simulation time: 0 hr 51 min 10 sec) 
Heartbeat CPU 0 instructions: 79000001 cycles: 83347466 heartbeat IPC: 0.779379 cumulative IPC: 0.869431 (Simulation time: 0 hr 51 min 48 sec) 
Heartbeat CPU 0 instructions: 80000000 cycles: 84478398 heartbeat IPC: 0.884226 cumulative IPC: 0.869639 (Simulation time: 0 hr 52 min 17 sec) 
Heartbeat CPU 0 instructions: 81000000 cycles: 85354027 heartbeat IPC: 1.14204 cumulative IPC: 0.87257 (Simulation time: 0 hr 52 min 51 sec) 
Heartbeat CPU 0 instructions: 82000000 cycles: 86188130 heartbeat IPC: 1.19889 cumulative IPC: 0.875881 (Simulation time: 0 hr 53 min 21 sec) 
Heartbeat CPU 0 instructions: 83000000 cycles: 87575604 heartbeat IPC: 0.720734 cumulative IPC: 0.873306 (Simulation time: 0 hr 53 min 56 sec) 
Heartbeat CPU 0 instructions: 84000000 cycles: 88489071 heartbeat IPC: 1.09473 cumulative IPC: 0.875699 (Simulation time: 0 hr 54 min 30 sec) 
Heartbeat CPU 0 instructions: 85000001 cycles: 89339752 heartbeat IPC: 1.17553 cumulative IPC: 0.878688 (Simulation time: 0 hr 55 min 5 sec) 
Heartbeat CPU 0 instructions: 86000001 cycles: 90357974 heartbeat IPC: 0.982104 cumulative IPC: 0.879907 (Simulation time: 0 hr 55 min 37 sec) 
Heartbeat CPU 0 instructions: 87000000 cycles: 91530385 heartbeat IPC: 0.852942 cumulative IPC: 0.879546 (Simulation time: 0 hr 56 min 15 sec) 
Heartbeat CPU 0 instructions: 88000000 cycles: 92396991 heartbeat IPC: 1.15393 cumulative IPC: 0.882235 (Simulation time: 0 hr 56 min 51 sec) 
Heartbeat CPU 0 instructions: 89000000 cycles: 93218814 heartbeat IPC: 1.21681 cumulative IPC: 0.885316 (Simulation time: 0 hr 57 min 21 sec) 
Heartbeat CPU 0 instructions: 90000000 cycles: 94493199 heartbeat IPC: 0.784692 cumulative IPC: 0.8839 (Simulation time: 0 hr 57 min 57 sec) 
Heartbeat CPU 0 instructions: 91000003 cycles: 95737400 heartbeat IPC: 0.803731 cumulative IPC: 0.882812 (Simulation time: 0 hr 58 min 31 sec) 
Heartbeat CPU 0 instructions: 92000000 cycles: 96693461 heartbeat IPC: 1.04596 cumulative IPC: 0.884495 (Simulation time: 0 hr 59 min 6 sec) 
Heartbeat CPU 0 instructions: 93000000 cycles: 97543303 heartbeat IPC: 1.17669 cumulative IPC: 0.887149 (Simulation time: 0 hr 59 min 38 sec) 
Heartbeat CPU 0 instructions: 94000002 cycles: 98369719 heartbeat IPC: 1.21005 cumulative IPC: 0.889976 (Simulation time: 1 hr 0 min 10 sec) 
Heartbeat CPU 0 instructions: 95000001 cycles: 99714363 heartbeat IPC: 0.743691 cumulative IPC: 0.887922 (Simulation time: 1 hr 0 min 44 sec) 
Heartbeat CPU 0 instructions: 96000000 cycles: 100579603 heartbeat IPC: 1.15575 cumulative IPC: 0.890321 (Simulation time: 1 hr 1 min 15 sec) 
Heartbeat CPU 0 instructions: 97000002 cycles: 101429746 heartbeat IPC: 1.17628 cumulative IPC: 0.892815 (Simulation time: 1 hr 1 min 46 sec) 
Heartbeat CPU 0 instructions: 98000003 cycles: 102583837 heartbeat IPC: 0.866484 cumulative IPC: 0.892507 (Simulation time: 1 hr 2 min 13 sec) 
Heartbeat CPU 0 instructions: 99000000 cycles: 103638497 heartbeat IPC: 0.94817 cumulative IPC: 0.893096 (Simulation time: 1 hr 2 min 41 sec) 
Heartbeat CPU 0 instructions: 100000000 cycles: 104497062 heartbeat IPC: 1.16473 cumulative IPC: 0.895417 (Simulation time: 1 hr 3 min 10 sec) 
Heartbeat CPU 0 instructions: 101000000 cycles: 105330890 heartbeat IPC: 1.19929 cumulative IPC: 0.897917 (Simulation time: 1 hr 3 min 35 sec) 
Heartbeat CPU 0 instructions: 102000003 cycles: 106756209 heartbeat IPC: 0.701599 cumulative IPC: 0.895194 (Simulation time: 1 hr 4 min 7 sec) 
Heartbeat CPU 0 instructions: 103000001 cycles: 107697633 heartbeat IPC: 1.06222 cumulative IPC: 0.89671 (Simulation time: 1 hr 4 min 33 sec) 
Heartbeat CPU 0 instructions: 104000000 cycles: 108541926 heartbeat IPC: 1.18442 cumulative IPC: 0.899033 (Simulation time: 1 hr 4 min 58 sec) 
Heartbeat CPU 0 instructions: 105000002 cycles: 109596217 heartbeat IPC: 0.948507 cumulative IPC: 0.899527 (Simulation time: 1 hr 5 min 26 sec) 
Heartbeat CPU 0 instructions: 106000003 cycles: 111018498 heartbeat IPC: 0.703097 cumulative IPC: 0.896917 (Simulation time: 1 hr 5 min 53 sec) 
Heartbeat CPU 0 instructions: 107000001 cycles: 111888339 heartbeat IPC: 1.14963 cumulative IPC: 0.898954 (Simulation time: 1 hr 6 min 19 sec) 
Heartbeat CPU 0 instructions: 108000000 cycles: 112734679 heartbeat IPC: 1.18156 cumulative IPC: 0.901154 (Simulation time: 1 hr 6 min 49 sec) 
Heartbeat CPU 0 instructions: 109000001 cycles: 113849120 heartbeat IPC: 0.897312 cumulative IPC: 0.901115 (Simulation time: 1 hr 7 min 20 sec) 
Heartbeat CPU 0 instructions: 110000000 cycles: 115187639 heartbeat IPC: 0.747094 cumulative IPC: 0.899261 (Simulation time: 1 hr 7 min 53 sec) 
Finished CPU 0 instructions: 100000000 cycles: 111202452 cummulative IPC: 0.899261 (Simulation time: 1 hr 7 min 53 sec) 

ChampSim completed all CPUs

Region of Interest Statistics

CPU 0 cummulative IPC: 0.899261 instructions: 100000000 cycles: 111202452
LLC TOTAL     ACCESS:    1795873  HIT:     641353  MISS:    1154520
LLC LOAD      ACCESS:     314447  HIT:     269322  MISS:      45125
LLC RFO       ACCESS:      99589  HIT:      87329  MISS:      12260
LLC PREFETCH  ACCESS:    1240424  HIT:     146023  MISS:    1094401
LLC WRITEBACK ACCESS:     141413  HIT:     138679  MISS:       2734
