
*** ChampSim Multicore Out-of-Order Simulator ***

Warmup Instructions: 10000000
Simulation Instructions: 100000000
Configuration: 2
Number of CPUs: 1
LLC sets: 2048
LLC ways: 16
Off-chip DRAM Channels: 1 Width: 64-bit Data Rate: 1600 MT/s

CPU 0 runs /datasets/cs240c-wi22-a00-public/data/Assignment2-gz/astar_313B.trace.gz
CPU 0 L1D next line prefetcher
CPU 0 L2C IP-based stride prefetcher
Heartbeat CPU 0 instructions: 1000001 cycles: 676287 heartbeat IPC: 1.47866 cumulative IPC: 1.47866 (Simulation time: 0 hr 0 min 52 sec) 
Heartbeat CPU 0 instructions: 2000003 cycles: 1263744 heartbeat IPC: 1.70226 cumulative IPC: 1.5826 (Simulation time: 0 hr 1 min 39 sec) 
Heartbeat CPU 0 instructions: 3000003 cycles: 1938719 heartbeat IPC: 1.48154 cumulative IPC: 1.54742 (Simulation time: 0 hr 2 min 28 sec) 
Heartbeat CPU 0 instructions: 4000000 cycles: 2613561 heartbeat IPC: 1.48182 cumulative IPC: 1.53048 (Simulation time: 0 hr 3 min 18 sec) 
Heartbeat CPU 0 instructions: 5000002 cycles: 3288836 heartbeat IPC: 1.48088 cumulative IPC: 1.5203 (Simulation time: 0 hr 4 min 6 sec) 
Heartbeat CPU 0 instructions: 6000001 cycles: 3875100 heartbeat IPC: 1.70571 cumulative IPC: 1.54835 (Simulation time: 0 hr 4 min 53 sec) 
Heartbeat CPU 0 instructions: 7000001 cycles: 4443586 heartbeat IPC: 1.75906 cumulative IPC: 1.5753 (Simulation time: 0 hr 5 min 43 sec) 
Heartbeat CPU 0 instructions: 8000000 cycles: 4995329 heartbeat IPC: 1.81244 cumulative IPC: 1.6015 (Simulation time: 0 hr 6 min 31 sec) 
Heartbeat CPU 0 instructions: 9000001 cycles: 5556998 heartbeat IPC: 1.78041 cumulative IPC: 1.61958 (Simulation time: 0 hr 7 min 21 sec) 
Heartbeat CPU 0 instructions: 10000002 cycles: 6231931 heartbeat IPC: 1.48163 cumulative IPC: 1.60464 (Simulation time: 0 hr 8 min 8 sec) 

Warmup complete CPU 0 instructions: 10000002 cycles: 6231931 (Simulation time: 0 hr 8 min 8 sec) 

Heartbeat CPU 0 instructions: 11000000 cycles: 12856215 heartbeat IPC: 0.150959 cumulative IPC: 0.150959 (Simulation time: 0 hr 8 min 59 sec) 
Heartbeat CPU 0 instructions: 12000000 cycles: 20020137 heartbeat IPC: 0.139588 cumulative IPC: 0.145051 (Simulation time: 0 hr 9 min 52 sec) 
Heartbeat CPU 0 instructions: 13000003 cycles: 28406675 heartbeat IPC: 0.119239 cumulative IPC: 0.135289 (Simulation time: 0 hr 10 min 54 sec) 
Heartbeat CPU 0 instructions: 14000002 cycles: 34342364 heartbeat IPC: 0.168472 cumulative IPC: 0.142296 (Simulation time: 0 hr 11 min 48 sec) 
Heartbeat CPU 0 instructions: 15000000 cycles: 40703651 heartbeat IPC: 0.157201 cumulative IPC: 0.145046 (Simulation time: 0 hr 12 min 40 sec) 
Heartbeat CPU 0 instructions: 16000000 cycles: 47115722 heartbeat IPC: 0.155956 cumulative IPC: 0.146757 (Simulation time: 0 hr 13 min 31 sec) 
Heartbeat CPU 0 instructions: 17000001 cycles: 53565434 heartbeat IPC: 0.155046 cumulative IPC: 0.147887 (Simulation time: 0 hr 14 min 31 sec) 
Heartbeat CPU 0 instructions: 18000000 cycles: 62452520 heartbeat IPC: 0.112523 cumulative IPC: 0.142297 (Simulation time: 0 hr 15 min 42 sec) 
Heartbeat CPU 0 instructions: 19000000 cycles: 68466951 heartbeat IPC: 0.166267 cumulative IPC: 0.144613 (Simulation time: 0 hr 16 min 37 sec) 
Heartbeat CPU 0 instructions: 20000000 cycles: 74726110 heartbeat IPC: 0.159766 cumulative IPC: 0.145998 (Simulation time: 0 hr 17 min 35 sec) 
Heartbeat CPU 0 instructions: 21000002 cycles: 83170269 heartbeat IPC: 0.118425 cumulative IPC: 0.142972 (Simulation time: 0 hr 18 min 33 sec) 
Heartbeat CPU 0 instructions: 22000002 cycles: 90261504 heartbeat IPC: 0.141019 cumulative IPC: 0.142807 (Simulation time: 0 hr 19 min 37 sec) 
Heartbeat CPU 0 instructions: 23000002 cycles: 95862117 heartbeat IPC: 0.178552 cumulative IPC: 0.14504 (Simulation time: 0 hr 20 min 30 sec) 
Heartbeat CPU 0 instructions: 24000000 cycles: 102174431 heartbeat IPC: 0.15842 cumulative IPC: 0.145921 (Simulation time: 0 hr 21 min 29 sec) 
Heartbeat CPU 0 instructions: 25000001 cycles: 109940789 heartbeat IPC: 0.128761 cumulative IPC: 0.144636 (Simulation time: 0 hr 22 min 32 sec) 
Heartbeat CPU 0 instructions: 26000002 cycles: 116266628 heartbeat IPC: 0.158082 cumulative IPC: 0.145409 (Simulation time: 0 hr 23 min 30 sec) 
Heartbeat CPU 0 instructions: 27000003 cycles: 125495032 heartbeat IPC: 0.108361 cumulative IPC: 0.142542 (Simulation time: 0 hr 24 min 36 sec) 
Heartbeat CPU 0 instructions: 28000000 cycles: 131321242 heartbeat IPC: 0.171638 cumulative IPC: 0.143897 (Simulation time: 0 hr 25 min 32 sec) 
Heartbeat CPU 0 instructions: 29000001 cycles: 139956809 heartbeat IPC: 0.1158 cumulative IPC: 0.142083 (Simulation time: 0 hr 26 min 39 sec) 
Heartbeat CPU 0 instructions: 30000001 cycles: 146010942 heartbeat IPC: 0.165176 cumulative IPC: 0.143083 (Simulation time: 0 hr 27 min 36 sec) 
Heartbeat CPU 0 instructions: 31000002 cycles: 152093048 heartbeat IPC: 0.164417 cumulative IPC: 0.143973 (Simulation time: 0 hr 28 min 35 sec) 
Heartbeat CPU 0 instructions: 32000000 cycles: 157907592 heartbeat IPC: 0.171982 cumulative IPC: 0.145046 (Simulation time: 0 hr 29 min 33 sec) 
Heartbeat CPU 0 instructions: 33000000 cycles: 163827909 heartbeat IPC: 0.16891 cumulative IPC: 0.145943 (Simulation time: 0 hr 30 min 34 sec) 
Heartbeat CPU 0 instructions: 34000000 cycles: 172573519 heartbeat IPC: 0.114343 cumulative IPC: 0.144281 (Simulation time: 0 hr 31 min 38 sec) 
Heartbeat CPU 0 instructions: 35000000 cycles: 178567241 heartbeat IPC: 0.166841 cumulative IPC: 0.145066 (Simulation time: 0 hr 32 min 38 sec) 
Heartbeat CPU 0 instructions: 36000000 cycles: 184743473 heartbeat IPC: 0.161911 cumulative IPC: 0.145649 (Simulation time: 0 hr 33 min 41 sec) 
Heartbeat CPU 0 instructions: 37000002 cycles: 193445453 heartbeat IPC: 0.114917 cumulative IPC: 0.14422 (Simulation time: 0 hr 34 min 49 sec) 
Heartbeat CPU 0 instructions: 38000000 cycles: 199068454 heartbeat IPC: 0.177841 cumulative IPC: 0.145201 (Simulation time: 0 hr 35 min 48 sec) 
Heartbeat CPU 0 instructions: 39000001 cycles: 207729712 heartbeat IPC: 0.115457 cumulative IPC: 0.143922 (Simulation time: 0 hr 36 min 53 sec) 
Heartbeat CPU 0 instructions: 40000000 cycles: 216412208 heartbeat IPC: 0.115174 cumulative IPC: 0.142735 (Simulation time: 0 hr 37 min 58 sec) 
Heartbeat CPU 0 instructions: 41000001 cycles: 222443998 heartbeat IPC: 0.165788 cumulative IPC: 0.143378 (Simulation time: 0 hr 38 min 56 sec) 
Heartbeat CPU 0 instructions: 42000003 cycles: 229410425 heartbeat IPC: 0.143546 cumulative IPC: 0.143383 (Simulation time: 0 hr 39 min 55 sec) 
Heartbeat CPU 0 instructions: 43000000 cycles: 238705239 heartbeat IPC: 0.107587 cumulative IPC: 0.141952 (Simulation time: 0 hr 40 min 59 sec) 
Heartbeat CPU 0 instructions: 44000000 cycles: 244232062 heartbeat IPC: 0.180936 cumulative IPC: 0.142857 (Simulation time: 0 hr 42 min 1 sec) 
Heartbeat CPU 0 instructions: 45000000 cycles: 250225893 heartbeat IPC: 0.166838 cumulative IPC: 0.143446 (Simulation time: 0 hr 42 min 56 sec) 
Heartbeat CPU 0 instructions: 46000002 cycles: 256558515 heartbeat IPC: 0.157913 cumulative IPC: 0.143812 (Simulation time: 0 hr 43 min 51 sec) 
Heartbeat CPU 0 instructions: 47000000 cycles: 263142218 heartbeat IPC: 0.15189 cumulative IPC: 0.144019 (Simulation time: 0 hr 44 min 46 sec) 
Heartbeat CPU 0 instructions: 48000000 cycles: 271497704 heartbeat IPC: 0.119682 cumulative IPC: 0.143253 (Simulation time: 0 hr 45 min 50 sec) 
Heartbeat CPU 0 instructions: 49000000 cycles: 276975438 heartbeat IPC: 0.182557 cumulative IPC: 0.144048 (Simulation time: 0 hr 46 min 43 sec) 
Heartbeat CPU 0 instructions: 50000000 cycles: 282741773 heartbeat IPC: 0.17342 cumulative IPC: 0.14466 (Simulation time: 0 hr 47 min 36 sec) 
Heartbeat CPU 0 instructions: 51000000 cycles: 289350931 heartbeat IPC: 0.151305 cumulative IPC: 0.144815 (Simulation time: 0 hr 48 min 29 sec) 
Heartbeat CPU 0 instructions: 52000000 cycles: 297109872 heartbeat IPC: 0.128884 cumulative IPC: 0.14439 (Simulation time: 0 hr 49 min 30 sec) 
Heartbeat CPU 0 instructions: 53000000 cycles: 303331178 heartbeat IPC: 0.160738 cumulative IPC: 0.144733 (Simulation time: 0 hr 50 min 27 sec) 
Heartbeat CPU 0 instructions: 54000000 cycles: 310801498 heartbeat IPC: 0.133863 cumulative IPC: 0.144466 (Simulation time: 0 hr 51 min 24 sec) 
Heartbeat CPU 0 instructions: 55000001 cycles: 318882027 heartbeat IPC: 0.123754 cumulative IPC: 0.143931 (Simulation time: 0 hr 52 min 25 sec) 
Heartbeat CPU 0 instructions: 56000000 cycles: 328573006 heartbeat IPC: 0.103189 cumulative IPC: 0.142706 (Simulation time: 0 hr 53 min 30 sec) 
Heartbeat CPU 0 instructions: 57000000 cycles: 334367236 heartbeat IPC: 0.172585 cumulative IPC: 0.143234 (Simulation time: 0 hr 54 min 22 sec) 
Heartbeat CPU 0 instructions: 58000001 cycles: 340690222 heartbeat IPC: 0.158153 cumulative IPC: 0.143516 (Simulation time: 0 hr 55 min 16 sec) 
Heartbeat CPU 0 instructions: 59000002 cycles: 348938610 heartbeat IPC: 0.121236 cumulative IPC: 0.142979 (Simulation time: 0 hr 56 min 15 sec) 
Heartbeat CPU 0 instructions: 60000000 cycles: 356147089 heartbeat IPC: 0.138725 cumulative IPC: 0.142892 (Simulation time: 0 hr 57 min 15 sec) 
Heartbeat CPU 0 instructions: 61000001 cycles: 362141743 heartbeat IPC: 0.166815 cumulative IPC: 0.143295 (Simulation time: 0 hr 58 min 7 sec) 
Heartbeat CPU 0 instructions: 62000001 cycles: 368251394 heartbeat IPC: 0.163675 cumulative IPC: 0.143639 (Simulation time: 0 hr 58 min 59 sec) 
Heartbeat CPU 0 instructions: 63000000 cycles: 374544778 heartbeat IPC: 0.158897 cumulative IPC: 0.143899 (Simulation time: 0 hr 59 min 51 sec) 
Heartbeat CPU 0 instructions: 64000000 cycles: 382975787 heartbeat IPC: 0.11861 cumulative IPC: 0.143333 (Simulation time: 1 hr 0 min 49 sec) 
Heartbeat CPU 0 instructions: 65000000 cycles: 389612006 heartbeat IPC: 0.150688 cumulative IPC: 0.143461 (Simulation time: 1 hr 1 min 44 sec) 
Heartbeat CPU 0 instructions: 66000001 cycles: 395684657 heartbeat IPC: 0.164673 cumulative IPC: 0.143792 (Simulation time: 1 hr 2 min 33 sec) 
Heartbeat CPU 0 instructions: 67000000 cycles: 402254329 heartbeat IPC: 0.152214 cumulative IPC: 0.143931 (Simulation time: 1 hr 3 min 23 sec) 
Heartbeat CPU 0 instructions: 68000000 cycles: 409229417 heartbeat IPC: 0.143367 cumulative IPC: 0.143921 (Simulation time: 1 hr 4 min 13 sec) 
Heartbeat CPU 0 instructions: 69000000 cycles: 420832578 heartbeat IPC: 0.0861834 cumulative IPC: 0.142306 (Simulation time: 1 hr 5 min 15 sec) 
Heartbeat CPU 0 instructions: 70000000 cycles: 427094789 heartbeat IPC: 0.159688 cumulative IPC: 0.142564 (Simulation time: 1 hr 6 min 1 sec) 
Heartbeat CPU 0 instructions: 71000002 cycles: 433474451 heartbeat IPC: 0.156748 cumulative IPC: 0.142776 (Simulation time: 1 hr 6 min 52 sec) 
Heartbeat CPU 0 instructions: 72000000 cycles: 440029126 heartbeat IPC: 0.152563 cumulative IPC: 0.142924 (Simulation time: 1 hr 7 min 44 sec) 
Heartbeat CPU 0 instructions: 73000003 cycles: 446725903 heartbeat IPC: 0.149326 cumulative IPC: 0.143021 (Simulation time: 1 hr 8 min 38 sec) 
Heartbeat CPU 0 instructions: 74000001 cycles: 455222520 heartbeat IPC: 0.117694 cumulative IPC: 0.142542 (Simulation time: 1 hr 9 min 28 sec) 
Heartbeat CPU 0 instructions: 75000000 cycles: 461865283 heartbeat IPC: 0.15054 cumulative IPC: 0.142659 (Simulation time: 1 hr 10 min 17 sec) 
Heartbeat CPU 0 instructions: 76000000 cycles: 467549594 heartbeat IPC: 0.175923 cumulative IPC: 0.143068 (Simulation time: 1 hr 11 min 0 sec) 
Heartbeat CPU 0 instructions: 77000000 cycles: 473377431 heartbeat IPC: 0.17159 cumulative IPC: 0.143424 (Simulation time: 1 hr 11 min 43 sec) 
Heartbeat CPU 0 instructions: 78000001 cycles: 479243938 heartbeat IPC: 0.170459 cumulative IPC: 0.14376 (Simulation time: 1 hr 12 min 23 sec) 
Heartbeat CPU 0 instructions: 79000000 cycles: 487689765 heartbeat IPC: 0.118402 cumulative IPC: 0.143315 (Simulation time: 1 hr 13 min 8 sec) 
Heartbeat CPU 0 instructions: 80000000 cycles: 493196778 heartbeat IPC: 0.181587 cumulative IPC: 0.143748 (Simulation time: 1 hr 13 min 41 sec) 
Heartbeat CPU 0 instructions: 81000003 cycles: 500404806 heartbeat IPC: 0.138735 cumulative IPC: 0.143674 (Simulation time: 1 hr 14 min 20 sec) 
Heartbeat CPU 0 instructions: 82000001 cycles: 507720818 heartbeat IPC: 0.136686 cumulative IPC: 0.143572 (Simulation time: 1 hr 15 min 1 sec) 
Heartbeat CPU 0 instructions: 83000002 cycles: 513461852 heartbeat IPC: 0.174185 cumulative IPC: 0.143919 (Simulation time: 1 hr 15 min 35 sec) 
Heartbeat CPU 0 instructions: 84000000 cycles: 519508210 heartbeat IPC: 0.165388 cumulative IPC: 0.144172 (Simulation time: 1 hr 16 min 9 sec) 
Heartbeat CPU 0 instructions: 85000000 cycles: 526279148 heartbeat IPC: 0.14769 cumulative IPC: 0.144218 (Simulation time: 1 hr 16 min 44 sec) 
Heartbeat CPU 0 instructions: 86000001 cycles: 534298723 heartbeat IPC: 0.124695 cumulative IPC: 0.143921 (Simulation time: 1 hr 17 min 15 sec) 
Heartbeat CPU 0 instructions: 87000000 cycles: 539781300 heartbeat IPC: 0.182396 cumulative IPC: 0.144317 (Simulation time: 1 hr 17 min 42 sec) 
Heartbeat CPU 0 instructions: 88000000 cycles: 545669743 heartbeat IPC: 0.169824 cumulative IPC: 0.144595 (Simulation time: 1 hr 18 min 9 sec) 
Heartbeat CPU 0 instructions: 89000002 cycles: 551874213 heartbeat IPC: 0.161174 cumulative IPC: 0.144783 (Simulation time: 1 hr 18 min 36 sec) 
Heartbeat CPU 0 instructions: 90000002 cycles: 558145250 heartbeat IPC: 0.159463 cumulative IPC: 0.14495 (Simulation time: 1 hr 19 min 3 sec) 
Heartbeat CPU 0 instructions: 91000001 cycles: 566921223 heartbeat IPC: 0.113947 cumulative IPC: 0.144465 (Simulation time: 1 hr 19 min 32 sec) 
Heartbeat CPU 0 instructions: 92000000 cycles: 573396384 heartbeat IPC: 0.154436 cumulative IPC: 0.144579 (Simulation time: 1 hr 19 min 56 sec) 
Heartbeat CPU 0 instructions: 93000003 cycles: 580342773 heartbeat IPC: 0.14396 cumulative IPC: 0.144571 (Simulation time: 1 hr 20 min 22 sec) 
Heartbeat CPU 0 instructions: 94000000 cycles: 587685523 heartbeat IPC: 0.136188 cumulative IPC: 0.144466 (Simulation time: 1 hr 20 min 45 sec) 
Heartbeat CPU 0 instructions: 95000000 cycles: 594123931 heartbeat IPC: 0.155318 cumulative IPC: 0.144584 (Simulation time: 1 hr 21 min 9 sec) 
Heartbeat CPU 0 instructions: 96000000 cycles: 602920328 heartbeat IPC: 0.113683 cumulative IPC: 0.144129 (Simulation time: 1 hr 21 min 34 sec) 
Heartbeat CPU 0 instructions: 97000000 cycles: 609256678 heartbeat IPC: 0.15782 cumulative IPC: 0.144273 (Simulation time: 1 hr 21 min 53 sec) 
Heartbeat CPU 0 instructions: 98000003 cycles: 616395117 heartbeat IPC: 0.140087 cumulative IPC: 0.144224 (Simulation time: 1 hr 22 min 11 sec) 
Heartbeat CPU 0 instructions: 99000001 cycles: 623891422 heartbeat IPC: 0.133399 cumulative IPC: 0.144092 (Simulation time: 1 hr 22 min 28 sec) 
Heartbeat CPU 0 instructions: 100000000 cycles: 631302389 heartbeat IPC: 0.134935 cumulative IPC: 0.143984 (Simulation time: 1 hr 22 min 44 sec) 
Heartbeat CPU 0 instructions: 101000000 cycles: 640300439 heartbeat IPC: 0.111135 cumulative IPC: 0.143518 (Simulation time: 1 hr 23 min 1 sec) 
Heartbeat CPU 0 instructions: 102000001 cycles: 646357192 heartbeat IPC: 0.165105 cumulative IPC: 0.143722 (Simulation time: 1 hr 23 min 15 sec) 
Heartbeat CPU 0 instructions: 103000001 cycles: 652459830 heartbeat IPC: 0.163864 cumulative IPC: 0.143912 (Simulation time: 1 hr 23 min 27 sec) 
Heartbeat CPU 0 instructions: 104000000 cycles: 658354552 heartbeat IPC: 0.169643 cumulative IPC: 0.144145 (Simulation time: 1 hr 23 min 38 sec) 
Heartbeat CPU 0 instructions: 105000000 cycles: 663647275 heartbeat IPC: 0.188939 cumulative IPC: 0.144505 (Simulation time: 1 hr 23 min 49 sec) 
Heartbeat CPU 0 instructions: 106000000 cycles: 672111339 heartbeat IPC: 0.118147 cumulative IPC: 0.14417 (Simulation time: 1 hr 24 min 1 sec) 
Heartbeat CPU 0 instructions: 107000002 cycles: 678144602 heartbeat IPC: 0.165748 cumulative IPC: 0.144364 (Simulation time: 1 hr 24 min 9 sec) 
Heartbeat CPU 0 instructions: 108000000 cycles: 686807784 heartbeat IPC: 0.115431 cumulative IPC: 0.143996 (Simulation time: 1 hr 24 min 17 sec) 
Heartbeat CPU 0 instructions: 109000003 cycles: 692875013 heartbeat IPC: 0.16482 cumulative IPC: 0.14418 (Simulation time: 1 hr 24 min 23 sec) 
Heartbeat CPU 0 instructions: 110000003 cycles: 698906811 heartbeat IPC: 0.165788 cumulative IPC: 0.144368 (Simulation time: 1 hr 24 min 29 sec) 
Finished CPU 0 instructions: 100000001 cycles: 692674880 cummulative IPC: 0.144368 (Simulation time: 1 hr 24 min 29 sec) 

ChampSim completed all CPUs

Region of Interest Statistics

CPU 0 cummulative IPC: 0.144368 instructions: 100000001 cycles: 692674880
LLC TOTAL     ACCESS:    8751040  HIT:    3033622  MISS:    5717418
LLC LOAD      ACCESS:    1885956  HIT:     633478  MISS:    1252478
LLC RFO       ACCESS:    1828627  HIT:     771937  MISS:    1056690
LLC PREFETCH  ACCESS:    2273657  HIT:      69341  MISS:    2204316
LLC WRITEBACK ACCESS:    2762800  HIT:    1558866  MISS:    1203934
