
*** ChampSim Multicore Out-of-Order Simulator ***

Warmup Instructions: 10000000
Simulation Instructions: 100000000
Configuration: 2
Number of CPUs: 1
LLC sets: 2048
LLC ways: 16
Off-chip DRAM Channels: 1 Width: 64-bit Data Rate: 1600 MT/s

CPU 0 runs /datasets/cs240c-wi22-a00-public/data/Assignment2-gz/bzip2_281B.trace.gz
CPU 0 L1D next line prefetcher
CPU 0 L2C IP-based stride prefetcher
Heartbeat CPU 0 instructions: 1000000 cycles: 445883 heartbeat IPC: 2.24274 cumulative IPC: 2.24274 (Simulation time: 0 hr 0 min 43 sec) 
Heartbeat CPU 0 instructions: 2000003 cycles: 900143 heartbeat IPC: 2.20139 cumulative IPC: 2.22187 (Simulation time: 0 hr 1 min 24 sec) 
Heartbeat CPU 0 instructions: 3000002 cycles: 1314804 heartbeat IPC: 2.41161 cumulative IPC: 2.28171 (Simulation time: 0 hr 2 min 3 sec) 
Heartbeat CPU 0 instructions: 4000000 cycles: 1753272 heartbeat IPC: 2.28066 cumulative IPC: 2.28145 (Simulation time: 0 hr 2 min 42 sec) 
Heartbeat CPU 0 instructions: 5000002 cycles: 2175272 heartbeat IPC: 2.36967 cumulative IPC: 2.29856 (Simulation time: 0 hr 3 min 23 sec) 
Heartbeat CPU 0 instructions: 6000000 cycles: 2665944 heartbeat IPC: 2.03802 cumulative IPC: 2.25061 (Simulation time: 0 hr 4 min 9 sec) 
Heartbeat CPU 0 instructions: 7000001 cycles: 3193237 heartbeat IPC: 1.89648 cumulative IPC: 2.19213 (Simulation time: 0 hr 4 min 53 sec) 
Heartbeat CPU 0 instructions: 8000000 cycles: 3725870 heartbeat IPC: 1.87746 cumulative IPC: 2.14715 (Simulation time: 0 hr 5 min 36 sec) 
Heartbeat CPU 0 instructions: 9000000 cycles: 4232415 heartbeat IPC: 1.97416 cumulative IPC: 2.12645 (Simulation time: 0 hr 6 min 17 sec) 
Heartbeat CPU 0 instructions: 10000002 cycles: 4685376 heartbeat IPC: 2.2077 cumulative IPC: 2.1343 (Simulation time: 0 hr 6 min 57 sec) 

Warmup complete CPU 0 instructions: 10000002 cycles: 4685376 (Simulation time: 0 hr 6 min 57 sec) 

Heartbeat CPU 0 instructions: 11000001 cycles: 6204681 heartbeat IPC: 0.658195 cumulative IPC: 0.658195 (Simulation time: 0 hr 7 min 32 sec) 
Heartbeat CPU 0 instructions: 12000000 cycles: 7500363 heartbeat IPC: 0.771794 cumulative IPC: 0.710482 (Simulation time: 0 hr 8 min 8 sec) 
Heartbeat CPU 0 instructions: 13000001 cycles: 8854920 heartbeat IPC: 0.738249 cumulative IPC: 0.719503 (Simulation time: 0 hr 8 min 50 sec) 
Heartbeat CPU 0 instructions: 14000000 cycles: 10327784 heartbeat IPC: 0.678949 cumulative IPC: 0.708917 (Simulation time: 0 hr 9 min 25 sec) 
Heartbeat CPU 0 instructions: 15000000 cycles: 11832069 heartbeat IPC: 0.664768 cumulative IPC: 0.699624 (Simulation time: 0 hr 10 min 5 sec) 
Heartbeat CPU 0 instructions: 16000000 cycles: 13381831 heartbeat IPC: 0.64526 cumulative IPC: 0.689936 (Simulation time: 0 hr 10 min 47 sec) 
Heartbeat CPU 0 instructions: 17000000 cycles: 14898219 heartbeat IPC: 0.659462 cumulative IPC: 0.685411 (Simulation time: 0 hr 11 min 29 sec) 
Heartbeat CPU 0 instructions: 18000002 cycles: 16575908 heartbeat IPC: 0.596059 cumulative IPC: 0.672804 (Simulation time: 0 hr 12 min 4 sec) 
Heartbeat CPU 0 instructions: 19000003 cycles: 18042223 heartbeat IPC: 0.681982 cumulative IPC: 0.673812 (Simulation time: 0 hr 12 min 37 sec) 
Heartbeat CPU 0 instructions: 20000000 cycles: 19713119 heartbeat IPC: 0.59848 cumulative IPC: 0.665436 (Simulation time: 0 hr 13 min 14 sec) 
Heartbeat CPU 0 instructions: 21000001 cycles: 21296066 heartbeat IPC: 0.631734 cumulative IPC: 0.662224 (Simulation time: 0 hr 13 min 54 sec) 
Heartbeat CPU 0 instructions: 22000000 cycles: 23170385 heartbeat IPC: 0.533527 cumulative IPC: 0.649175 (Simulation time: 0 hr 14 min 36 sec) 
Heartbeat CPU 0 instructions: 23000001 cycles: 24793704 heartbeat IPC: 0.616022 cumulative IPC: 0.646498 (Simulation time: 0 hr 15 min 8 sec) 
Heartbeat CPU 0 instructions: 24000000 cycles: 26582482 heartbeat IPC: 0.55904 cumulative IPC: 0.639354 (Simulation time: 0 hr 15 min 50 sec) 
Heartbeat CPU 0 instructions: 25000002 cycles: 28277691 heartbeat IPC: 0.589899 cumulative IPC: 0.6358 (Simulation time: 0 hr 16 min 36 sec) 
Heartbeat CPU 0 instructions: 26000003 cycles: 29551996 heartbeat IPC: 0.784742 cumulative IPC: 0.643433 (Simulation time: 0 hr 17 min 21 sec) 
Heartbeat CPU 0 instructions: 27000002 cycles: 30959946 heartbeat IPC: 0.710252 cumulative IPC: 0.647013 (Simulation time: 0 hr 18 min 5 sec) 
Heartbeat CPU 0 instructions: 28000000 cycles: 31926861 heartbeat IPC: 1.03421 cumulative IPC: 0.660757 (Simulation time: 0 hr 18 min 48 sec) 
Heartbeat CPU 0 instructions: 29000001 cycles: 32828624 heartbeat IPC: 1.10894 cumulative IPC: 0.675117 (Simulation time: 0 hr 19 min 28 sec) 
Heartbeat CPU 0 instructions: 30000000 cycles: 33746258 heartbeat IPC: 1.08976 cumulative IPC: 0.68821 (Simulation time: 0 hr 20 min 3 sec) 
Heartbeat CPU 0 instructions: 31000003 cycles: 34763861 heartbeat IPC: 0.982704 cumulative IPC: 0.698174 (Simulation time: 0 hr 20 min 39 sec) 
Heartbeat CPU 0 instructions: 32000000 cycles: 35689140 heartbeat IPC: 1.08075 cumulative IPC: 0.709591 (Simulation time: 0 hr 21 min 14 sec) 
Heartbeat CPU 0 instructions: 33000002 cycles: 36683732 heartbeat IPC: 1.00544 cumulative IPC: 0.718787 (Simulation time: 0 hr 21 min 56 sec) 
Heartbeat CPU 0 instructions: 34000000 cycles: 37632910 heartbeat IPC: 1.05354 cumulative IPC: 0.728431 (Simulation time: 0 hr 22 min 30 sec) 
Heartbeat CPU 0 instructions: 35000000 cycles: 38491229 heartbeat IPC: 1.16507 cumulative IPC: 0.739517 (Simulation time: 0 hr 23 min 3 sec) 
Heartbeat CPU 0 instructions: 36000000 cycles: 39333935 heartbeat IPC: 1.18665 cumulative IPC: 0.750392 (Simulation time: 0 hr 23 min 33 sec) 
Heartbeat CPU 0 instructions: 37000000 cycles: 40186537 heartbeat IPC: 1.17288 cumulative IPC: 0.760538 (Simulation time: 0 hr 24 min 6 sec) 
Heartbeat CPU 0 instructions: 38000002 cycles: 40981125 heartbeat IPC: 1.25852 cumulative IPC: 0.77144 (Simulation time: 0 hr 24 min 42 sec) 
Heartbeat CPU 0 instructions: 39000001 cycles: 41887622 heartbeat IPC: 1.10315 cumulative IPC: 0.779523 (Simulation time: 0 hr 25 min 15 sec) 
Heartbeat CPU 0 instructions: 40000000 cycles: 42821515 heartbeat IPC: 1.07079 cumulative IPC: 0.786655 (Simulation time: 0 hr 25 min 51 sec) 
Heartbeat CPU 0 instructions: 41000002 cycles: 43789299 heartbeat IPC: 1.03329 cumulative IPC: 0.792759 (Simulation time: 0 hr 26 min 28 sec) 
Heartbeat CPU 0 instructions: 42000001 cycles: 44752310 heartbeat IPC: 1.03841 cumulative IPC: 0.798664 (Simulation time: 0 hr 27 min 0 sec) 
Heartbeat CPU 0 instructions: 43000001 cycles: 45704982 heartbeat IPC: 1.04968 cumulative IPC: 0.804493 (Simulation time: 0 hr 27 min 35 sec) 
Heartbeat CPU 0 instructions: 44000000 cycles: 46687593 heartbeat IPC: 1.0177 cumulative IPC: 0.809481 (Simulation time: 0 hr 28 min 10 sec) 
Heartbeat CPU 0 instructions: 45000001 cycles: 47615619 heartbeat IPC: 1.07756 cumulative IPC: 0.815276 (Simulation time: 0 hr 28 min 46 sec) 
Heartbeat CPU 0 instructions: 46000000 cycles: 48523534 heartbeat IPC: 1.10142 cumulative IPC: 0.821202 (Simulation time: 0 hr 29 min 20 sec) 
Heartbeat CPU 0 instructions: 47000000 cycles: 49406512 heartbeat IPC: 1.13253 cumulative IPC: 0.827349 (Simulation time: 0 hr 29 min 54 sec) 
Heartbeat CPU 0 instructions: 48000000 cycles: 50316570 heartbeat IPC: 1.09883 cumulative IPC: 0.832764 (Simulation time: 0 hr 30 min 29 sec) 
Heartbeat CPU 0 instructions: 49000001 cycles: 51259138 heartbeat IPC: 1.06093 cumulative IPC: 0.837381 (Simulation time: 0 hr 31 min 4 sec) 
Heartbeat CPU 0 instructions: 50000003 cycles: 52241345 heartbeat IPC: 1.01812 cumulative IPC: 0.841114 (Simulation time: 0 hr 31 min 36 sec) 
Heartbeat CPU 0 instructions: 51000002 cycles: 53199179 heartbeat IPC: 1.04402 cumulative IPC: 0.84512 (Simulation time: 0 hr 32 min 8 sec) 
Heartbeat CPU 0 instructions: 52000000 cycles: 54165016 heartbeat IPC: 1.03537 cumulative IPC: 0.848834 (Simulation time: 0 hr 32 min 43 sec) 
Heartbeat CPU 0 instructions: 53000001 cycles: 55144205 heartbeat IPC: 1.02125 cumulative IPC: 0.85218 (Simulation time: 0 hr 33 min 16 sec) 
Heartbeat CPU 0 instructions: 54000003 cycles: 56129156 heartbeat IPC: 1.01528 cumulative IPC: 0.855303 (Simulation time: 0 hr 33 min 49 sec) 
Heartbeat CPU 0 instructions: 55000000 cycles: 57094003 heartbeat IPC: 1.03643 cumulative IPC: 0.858637 (Simulation time: 0 hr 34 min 25 sec) 
Heartbeat CPU 0 instructions: 56000000 cycles: 58071254 heartbeat IPC: 1.02328 cumulative IPC: 0.861651 (Simulation time: 0 hr 35 min 1 sec) 
Heartbeat CPU 0 instructions: 57000002 cycles: 59041886 heartbeat IPC: 1.03026 cumulative IPC: 0.864662 (Simulation time: 0 hr 35 min 35 sec) 
Heartbeat CPU 0 instructions: 58000003 cycles: 60017425 heartbeat IPC: 1.02508 cumulative IPC: 0.86749 (Simulation time: 0 hr 36 min 9 sec) 
Heartbeat CPU 0 instructions: 59000003 cycles: 61049753 heartbeat IPC: 0.968684 cumulative IPC: 0.869343 (Simulation time: 0 hr 36 min 47 sec) 
Heartbeat CPU 0 instructions: 60000000 cycles: 62259023 heartbeat IPC: 0.826943 cumulative IPC: 0.868453 (Simulation time: 0 hr 37 min 28 sec) 
Heartbeat CPU 0 instructions: 61000000 cycles: 63466817 heartbeat IPC: 0.827956 cumulative IPC: 0.867621 (Simulation time: 0 hr 38 min 8 sec) 
Heartbeat CPU 0 instructions: 62000003 cycles: 64691923 heartbeat IPC: 0.816258 cumulative IPC: 0.866572 (Simulation time: 0 hr 38 min 49 sec) 
Heartbeat CPU 0 instructions: 63000001 cycles: 65923470 heartbeat IPC: 0.811985 cumulative IPC: 0.865474 (Simulation time: 0 hr 39 min 29 sec) 
Heartbeat CPU 0 instructions: 64000000 cycles: 67245600 heartbeat IPC: 0.756355 cumulative IPC: 0.863168 (Simulation time: 0 hr 40 min 8 sec) 
Heartbeat CPU 0 instructions: 65000001 cycles: 68450359 heartbeat IPC: 0.830042 cumulative IPC: 0.862542 (Simulation time: 0 hr 40 min 51 sec) 
Heartbeat CPU 0 instructions: 66000003 cycles: 69652967 heartbeat IPC: 0.831528 cumulative IPC: 0.861968 (Simulation time: 0 hr 41 min 37 sec) 
Heartbeat CPU 0 instructions: 67000000 cycles: 70864493 heartbeat IPC: 0.825403 cumulative IPC: 0.861299 (Simulation time: 0 hr 42 min 22 sec) 
Heartbeat CPU 0 instructions: 68000000 cycles: 72178464 heartbeat IPC: 0.761052 cumulative IPC: 0.859347 (Simulation time: 0 hr 43 min 1 sec) 
Heartbeat CPU 0 instructions: 69000000 cycles: 73375373 heartbeat IPC: 0.835485 cumulative IPC: 0.858931 (Simulation time: 0 hr 43 min 43 sec) 
Heartbeat CPU 0 instructions: 70000002 cycles: 74577955 heartbeat IPC: 0.831546 cumulative IPC: 0.85846 (Simulation time: 0 hr 44 min 27 sec) 
Heartbeat CPU 0 instructions: 71000003 cycles: 75784926 heartbeat IPC: 0.828521 cumulative IPC: 0.857952 (Simulation time: 0 hr 45 min 7 sec) 
Heartbeat CPU 0 instructions: 72000000 cycles: 76993177 heartbeat IPC: 0.82764 cumulative IPC: 0.857445 (Simulation time: 0 hr 45 min 51 sec) 
Heartbeat CPU 0 instructions: 73000002 cycles: 78296628 heartbeat IPC: 0.767196 cumulative IPC: 0.855847 (Simulation time: 0 hr 46 min 28 sec) 
Heartbeat CPU 0 instructions: 74000000 cycles: 79496133 heartbeat IPC: 0.833676 cumulative IPC: 0.855492 (Simulation time: 0 hr 47 min 7 sec) 
Heartbeat CPU 0 instructions: 75000001 cycles: 80697522 heartbeat IPC: 0.832371 cumulative IPC: 0.855127 (Simulation time: 0 hr 47 min 44 sec) 
Heartbeat CPU 0 instructions: 76000000 cycles: 81906819 heartbeat IPC: 0.826926 cumulative IPC: 0.854685 (Simulation time: 0 hr 48 min 17 sec) 
Heartbeat CPU 0 instructions: 77000001 cycles: 83163922 heartbeat IPC: 0.795481 cumulative IPC: 0.853737 (Simulation time: 0 hr 48 min 53 sec) 
Heartbeat CPU 0 instructions: 78000003 cycles: 84333338 heartbeat IPC: 0.855129 cumulative IPC: 0.853757 (Simulation time: 0 hr 49 min 25 sec) 
Heartbeat CPU 0 instructions: 79000000 cycles: 85252213 heartbeat IPC: 1.08828 cumulative IPC: 0.856432 (Simulation time: 0 hr 49 min 51 sec) 
Heartbeat CPU 0 instructions: 80000000 cycles: 86155656 heartbeat IPC: 1.10688 cumulative IPC: 0.859209 (Simulation time: 0 hr 50 min 21 sec) 
Heartbeat CPU 0 instructions: 81000000 cycles: 87001395 heartbeat IPC: 1.1824 cumulative IPC: 0.86253 (Simulation time: 0 hr 50 min 50 sec) 
Heartbeat CPU 0 instructions: 82000001 cycles: 87893229 heartbeat IPC: 1.12129 cumulative IPC: 0.865303 (Simulation time: 0 hr 51 min 23 sec) 
Heartbeat CPU 0 instructions: 83000000 cycles: 88817297 heartbeat IPC: 1.08217 cumulative IPC: 0.867685 (Simulation time: 0 hr 51 min 53 sec) 
Heartbeat CPU 0 instructions: 84000000 cycles: 89734681 heartbeat IPC: 1.09006 cumulative IPC: 0.870084 (Simulation time: 0 hr 52 min 24 sec) 
Heartbeat CPU 0 instructions: 85000002 cycles: 90671077 heartbeat IPC: 1.06793 cumulative IPC: 0.872238 (Simulation time: 0 hr 52 min 54 sec) 
Heartbeat CPU 0 instructions: 86000002 cycles: 91600832 heartbeat IPC: 1.07555 cumulative IPC: 0.874413 (Simulation time: 0 hr 53 min 27 sec) 
Heartbeat CPU 0 instructions: 87000002 cycles: 92530284 heartbeat IPC: 1.0759 cumulative IPC: 0.876545 (Simulation time: 0 hr 54 min 7 sec) 
Heartbeat CPU 0 instructions: 88000000 cycles: 93578974 heartbeat IPC: 0.953569 cumulative IPC: 0.877454 (Simulation time: 0 hr 54 min 43 sec) 
Heartbeat CPU 0 instructions: 89000002 cycles: 94669109 heartbeat IPC: 0.917319 cumulative IPC: 0.877936 (Simulation time: 0 hr 55 min 27 sec) 
Heartbeat CPU 0 instructions: 90000001 cycles: 95756686 heartbeat IPC: 0.919474 cumulative IPC: 0.878433 (Simulation time: 0 hr 56 min 6 sec) 
Heartbeat CPU 0 instructions: 91000001 cycles: 96851128 heartbeat IPC: 0.913708 cumulative IPC: 0.878851 (Simulation time: 0 hr 56 min 44 sec) 
Heartbeat CPU 0 instructions: 92000000 cycles: 97935383 heartbeat IPC: 0.922291 cumulative IPC: 0.879357 (Simulation time: 0 hr 57 min 21 sec) 
Heartbeat CPU 0 instructions: 93000001 cycles: 99017749 heartbeat IPC: 0.923903 cumulative IPC: 0.879868 (Simulation time: 0 hr 58 min 0 sec) 
Heartbeat CPU 0 instructions: 94000001 cycles: 100097883 heartbeat IPC: 0.925811 cumulative IPC: 0.880388 (Simulation time: 0 hr 58 min 42 sec) 
Heartbeat CPU 0 instructions: 95000000 cycles: 101181797 heartbeat IPC: 0.922581 cumulative IPC: 0.880862 (Simulation time: 0 hr 59 min 20 sec) 
Heartbeat CPU 0 instructions: 96000000 cycles: 102261384 heartbeat IPC: 0.92628 cumulative IPC: 0.881364 (Simulation time: 0 hr 59 min 57 sec) 
Heartbeat CPU 0 instructions: 97000002 cycles: 103343898 heartbeat IPC: 0.923777 cumulative IPC: 0.88183 (Simulation time: 1 hr 0 min 34 sec) 
Heartbeat CPU 0 instructions: 98000002 cycles: 104426125 heartbeat IPC: 0.924021 cumulative IPC: 0.882287 (Simulation time: 1 hr 1 min 16 sec) 
Heartbeat CPU 0 instructions: 99000000 cycles: 105507276 heartbeat IPC: 0.924938 cumulative IPC: 0.882745 (Simulation time: 1 hr 1 min 56 sec) 
Heartbeat CPU 0 instructions: 100000000 cycles: 106592421 heartbeat IPC: 0.921536 cumulative IPC: 0.883158 (Simulation time: 1 hr 2 min 35 sec) 
Heartbeat CPU 0 instructions: 101000000 cycles: 107679401 heartbeat IPC: 0.91998 cumulative IPC: 0.883546 (Simulation time: 1 hr 3 min 12 sec) 
Heartbeat CPU 0 instructions: 102000000 cycles: 108768882 heartbeat IPC: 0.917868 cumulative IPC: 0.883906 (Simulation time: 1 hr 3 min 50 sec) 
Heartbeat CPU 0 instructions: 103000002 cycles: 109857379 heartbeat IPC: 0.9187 cumulative IPC: 0.884266 (Simulation time: 1 hr 4 min 29 sec) 
Heartbeat CPU 0 instructions: 104000000 cycles: 110945788 heartbeat IPC: 0.91877 cumulative IPC: 0.884619 (Simulation time: 1 hr 5 min 5 sec) 
Heartbeat CPU 0 instructions: 105000003 cycles: 112039712 heartbeat IPC: 0.914143 cumulative IPC: 0.88492 (Simulation time: 1 hr 5 min 40 sec) 
Heartbeat CPU 0 instructions: 106000002 cycles: 113135899 heartbeat IPC: 0.912252 cumulative IPC: 0.885196 (Simulation time: 1 hr 6 min 15 sec) 
Heartbeat CPU 0 instructions: 107000001 cycles: 114219515 heartbeat IPC: 0.922835 cumulative IPC: 0.885569 (Simulation time: 1 hr 6 min 50 sec) 
Heartbeat CPU 0 instructions: 108000000 cycles: 115313449 heartbeat IPC: 0.914131 cumulative IPC: 0.885851 (Simulation time: 1 hr 7 min 26 sec) 
Heartbeat CPU 0 instructions: 109000001 cycles: 116408298 heartbeat IPC: 0.913369 cumulative IPC: 0.886121 (Simulation time: 1 hr 8 min 1 sec) 
Heartbeat CPU 0 instructions: 110000002 cycles: 117507274 heartbeat IPC: 0.909939 cumulative IPC: 0.886353 (Simulation time: 1 hr 8 min 36 sec) 
Finished CPU 0 instructions: 100000000 cycles: 112821898 cummulative IPC: 0.886353 (Simulation time: 1 hr 8 min 36 sec) 

ChampSim completed all CPUs

Region of Interest Statistics

CPU 0 cummulative IPC: 0.886353 instructions: 100000000 cycles: 112821898
LLC TOTAL     ACCESS:    2346770  HIT:    2034059  MISS:     312711
LLC LOAD      ACCESS:     882451  HIT:     845685  MISS:      36766
LLC RFO       ACCESS:     180754  HIT:     113071  MISS:      67683
LLC PREFETCH  ACCESS:    1098703  HIT:     910754  MISS:     187949
LLC WRITEBACK ACCESS:     184862  HIT:     164549  MISS:      20313
