
*** ChampSim Multicore Out-of-Order Simulator ***

Warmup Instructions: 10000000
Simulation Instructions: 100000000
Configuration: 1
Number of CPUs: 1
LLC sets: 2048
LLC ways: 16
Off-chip DRAM Channels: 1 Width: 64-bit Data Rate: 1600 MT/s

CPU 0 runs /datasets/cs240c-wi22-a00-public/data/Assignment2-gz/omnetpp_17B.trace.gz
Heartbeat CPU 0 instructions: 1000000 cycles: 559779 heartbeat IPC: 1.78642 cumulative IPC: 1.78642 (Simulation time: 0 hr 0 min 22 sec) 
select_counter is 1023
Heartbeat CPU 0 instructions: 2000002 cycles: 1133977 heartbeat IPC: 1.74156 cumulative IPC: 1.76371 (Simulation time: 0 hr 0 min 46 sec) 
select_counter is 1023
Heartbeat CPU 0 instructions: 3000001 cycles: 1769234 heartbeat IPC: 1.57416 cumulative IPC: 1.69565 (Simulation time: 0 hr 1 min 9 sec) 
select_counter is 1023
Heartbeat CPU 0 instructions: 4000000 cycles: 2334249 heartbeat IPC: 1.76986 cumulative IPC: 1.71361 (Simulation time: 0 hr 1 min 34 sec) 
select_counter is 1023
Heartbeat CPU 0 instructions: 5000002 cycles: 2893401 heartbeat IPC: 1.78843 cumulative IPC: 1.72807 (Simulation time: 0 hr 2 min 0 sec) 
select_counter is 1023
Heartbeat CPU 0 instructions: 6000000 cycles: 3472124 heartbeat IPC: 1.72794 cumulative IPC: 1.72805 (Simulation time: 0 hr 2 min 25 sec) 
select_counter is 1023
Heartbeat CPU 0 instructions: 7000000 cycles: 4036553 heartbeat IPC: 1.7717 cumulative IPC: 1.73415 (Simulation time: 0 hr 2 min 48 sec) 
select_counter is 1023
Heartbeat CPU 0 instructions: 8000000 cycles: 4698295 heartbeat IPC: 1.51116 cumulative IPC: 1.70275 (Simulation time: 0 hr 3 min 9 sec) 
select_counter is 1023
Heartbeat CPU 0 instructions: 9000000 cycles: 5360126 heartbeat IPC: 1.51096 cumulative IPC: 1.67906 (Simulation time: 0 hr 3 min 32 sec) 
select_counter is 1022
Heartbeat CPU 0 instructions: 10000001 cycles: 6021717 heartbeat IPC: 1.51151 cumulative IPC: 1.66066 (Simulation time: 0 hr 3 min 53 sec) 
select_counter is 1022

Warmup complete CPU 0 instructions: 10000001 cycles: 6021717 (Simulation time: 0 hr 3 min 53 sec) 

Heartbeat CPU 0 instructions: 11000001 cycles: 7067979 heartbeat IPC: 0.955784 cumulative IPC: 0.955784 (Simulation time: 0 hr 4 min 17 sec) 
select_counter is 1023
Heartbeat CPU 0 instructions: 12000000 cycles: 8113663 heartbeat IPC: 0.956311 cumulative IPC: 0.956047 (Simulation time: 0 hr 4 min 39 sec) 
select_counter is 1023
Heartbeat CPU 0 instructions: 13000000 cycles: 9184864 heartbeat IPC: 0.933532 cumulative IPC: 0.948422 (Simulation time: 0 hr 5 min 4 sec) 
select_counter is 1023
Heartbeat CPU 0 instructions: 14000001 cycles: 10230697 heartbeat IPC: 0.956177 cumulative IPC: 0.950349 (Simulation time: 0 hr 5 min 28 sec) 
select_counter is 1023
Heartbeat CPU 0 instructions: 15000000 cycles: 11275383 heartbeat IPC: 0.957224 cumulative IPC: 0.951716 (Simulation time: 0 hr 5 min 51 sec) 
select_counter is 1023
Heartbeat CPU 0 instructions: 16000000 cycles: 12320656 heartbeat IPC: 0.956688 cumulative IPC: 0.952541 (Simulation time: 0 hr 6 min 17 sec) 
select_counter is 1022
Heartbeat CPU 0 instructions: 17000000 cycles: 13367827 heartbeat IPC: 0.954954 cumulative IPC: 0.952885 (Simulation time: 0 hr 6 min 40 sec) 
select_counter is 1023
Heartbeat CPU 0 instructions: 18000001 cycles: 14410803 heartbeat IPC: 0.958796 cumulative IPC: 0.95362 (Simulation time: 0 hr 7 min 5 sec) 
select_counter is 1023
Heartbeat CPU 0 instructions: 19000002 cycles: 15446779 heartbeat IPC: 0.965274 cumulative IPC: 0.954901 (Simulation time: 0 hr 7 min 29 sec) 
select_counter is 1023
Heartbeat CPU 0 instructions: 20000000 cycles: 18938959 heartbeat IPC: 0.286353 cumulative IPC: 0.774159 (Simulation time: 0 hr 7 min 59 sec) 
select_counter is 1022
Heartbeat CPU 0 instructions: 21000000 cycles: 21533609 heartbeat IPC: 0.385408 cumulative IPC: 0.709133 (Simulation time: 0 hr 8 min 26 sec) 
select_counter is 1023
Heartbeat CPU 0 instructions: 22000002 cycles: 23418027 heartbeat IPC: 0.530669 cumulative IPC: 0.689802 (Simulation time: 0 hr 8 min 53 sec) 
select_counter is 1023
Heartbeat CPU 0 instructions: 23000000 cycles: 26850260 heartbeat IPC: 0.291355 cumulative IPC: 0.624143 (Simulation time: 0 hr 9 min 23 sec) 
select_counter is 1023
Heartbeat CPU 0 instructions: 24000000 cycles: 30271926 heartbeat IPC: 0.292255 cumulative IPC: 0.577315 (Simulation time: 0 hr 9 min 51 sec) 
select_counter is 1023
Heartbeat CPU 0 instructions: 25000001 cycles: 33017517 heartbeat IPC: 0.364221 cumulative IPC: 0.555642 (Simulation time: 0 hr 10 min 21 sec) 
select_counter is 1023
Heartbeat CPU 0 instructions: 26000001 cycles: 34729060 heartbeat IPC: 0.584268 cumulative IPC: 0.557349 (Simulation time: 0 hr 10 min 48 sec) 
select_counter is 1022
Heartbeat CPU 0 instructions: 27000000 cycles: 38176551 heartbeat IPC: 0.290066 cumulative IPC: 0.528692 (Simulation time: 0 hr 11 min 18 sec) 
select_counter is 1022
Heartbeat CPU 0 instructions: 28000000 cycles: 41609056 heartbeat IPC: 0.291332 cumulative IPC: 0.505798 (Simulation time: 0 hr 11 min 49 sec) 
select_counter is 1022
Heartbeat CPU 0 instructions: 29000000 cycles: 44537000 heartbeat IPC: 0.341537 cumulative IPC: 0.493311 (Simulation time: 0 hr 12 min 18 sec) 
select_counter is 1023
Heartbeat CPU 0 instructions: 30000000 cycles: 46066819 heartbeat IPC: 0.653672 cumulative IPC: 0.499437 (Simulation time: 0 hr 12 min 44 sec) 
select_counter is 1022
Heartbeat CPU 0 instructions: 31000000 cycles: 49510063 heartbeat IPC: 0.290424 cumulative IPC: 0.482888 (Simulation time: 0 hr 13 min 12 sec) 
select_counter is 1022
Heartbeat CPU 0 instructions: 32000000 cycles: 52953298 heartbeat IPC: 0.290425 cumulative IPC: 0.468767 (Simulation time: 0 hr 13 min 41 sec) 
select_counter is 1023
Heartbeat CPU 0 instructions: 33000001 cycles: 56088882 heartbeat IPC: 0.31892 cumulative IPC: 0.459383 (Simulation time: 0 hr 14 min 10 sec) 
select_counter is 1023
Heartbeat CPU 0 instructions: 34000000 cycles: 57413319 heartbeat IPC: 0.755037 cumulative IPC: 0.467002 (Simulation time: 0 hr 14 min 35 sec) 
select_counter is 1023
Heartbeat CPU 0 instructions: 35000003 cycles: 60836549 heartbeat IPC: 0.292123 cumulative IPC: 0.456081 (Simulation time: 0 hr 15 min 7 sec) 
select_counter is 1023
Heartbeat CPU 0 instructions: 36000000 cycles: 64323491 heartbeat IPC: 0.286783 cumulative IPC: 0.445956 (Simulation time: 0 hr 15 min 36 sec) 
select_counter is 1023
Heartbeat CPU 0 instructions: 37000001 cycles: 67347628 heartbeat IPC: 0.330673 cumulative IPC: 0.440271 (Simulation time: 0 hr 16 min 2 sec) 
select_counter is 1023
Heartbeat CPU 0 instructions: 38000000 cycles: 68796564 heartbeat IPC: 0.690161 cumulative IPC: 0.446039 (Simulation time: 0 hr 16 min 26 sec) 
select_counter is 1021
Heartbeat CPU 0 instructions: 39000000 cycles: 72226965 heartbeat IPC: 0.291511 cumulative IPC: 0.438032 (Simulation time: 0 hr 16 min 54 sec) 
select_counter is 1023
Heartbeat CPU 0 instructions: 40000000 cycles: 75672819 heartbeat IPC: 0.290204 cumulative IPC: 0.430718 (Simulation time: 0 hr 17 min 23 sec) 
select_counter is 1023
Heartbeat CPU 0 instructions: 41000002 cycles: 78586337 heartbeat IPC: 0.343228 cumulative IPC: 0.427205 (Simulation time: 0 hr 17 min 56 sec) 
select_counter is 1023
Heartbeat CPU 0 instructions: 42000000 cycles: 80139221 heartbeat IPC: 0.643962 cumulative IPC: 0.431747 (Simulation time: 0 hr 18 min 21 sec) 
select_counter is 1022
Heartbeat CPU 0 instructions: 43000003 cycles: 85789254 heartbeat IPC: 0.176991 cumulative IPC: 0.413702 (Simulation time: 0 hr 18 min 56 sec) 
select_counter is 1022
Heartbeat CPU 0 instructions: 44000000 cycles: 86837491 heartbeat IPC: 0.95398 cumulative IPC: 0.42071 (Simulation time: 0 hr 19 min 21 sec) 
select_counter is 1023
Heartbeat CPU 0 instructions: 45000003 cycles: 87881410 heartbeat IPC: 0.957932 cumulative IPC: 0.427561 (Simulation time: 0 hr 19 min 42 sec) 
select_counter is 1023
Heartbeat CPU 0 instructions: 46000001 cycles: 88925204 heartbeat IPC: 0.958042 cumulative IPC: 0.43424 (Simulation time: 0 hr 20 min 2 sec) 
select_counter is 1023
Heartbeat CPU 0 instructions: 47000001 cycles: 89970435 heartbeat IPC: 0.956726 cumulative IPC: 0.440745 (Simulation time: 0 hr 20 min 22 sec) 
select_counter is 1023
Heartbeat CPU 0 instructions: 48000000 cycles: 91014905 heartbeat IPC: 0.957422 cumulative IPC: 0.447095 (Simulation time: 0 hr 20 min 43 sec) 
select_counter is 1022
Heartbeat CPU 0 instructions: 49000000 cycles: 92057846 heartbeat IPC: 0.958827 cumulative IPC: 0.453298 (Simulation time: 0 hr 21 min 6 sec) 
select_counter is 1023
Heartbeat CPU 0 instructions: 50000000 cycles: 93101238 heartbeat IPC: 0.958413 cumulative IPC: 0.45935 (Simulation time: 0 hr 21 min 23 sec) 
select_counter is 1023
Heartbeat CPU 0 instructions: 51000002 cycles: 94145584 heartbeat IPC: 0.957539 cumulative IPC: 0.465254 (Simulation time: 0 hr 21 min 41 sec) 
select_counter is 1023
Heartbeat CPU 0 instructions: 52000000 cycles: 95190866 heartbeat IPC: 0.956678 cumulative IPC: 0.471015 (Simulation time: 0 hr 22 min 4 sec) 
select_counter is 1022
Heartbeat CPU 0 instructions: 53000001 cycles: 96234790 heartbeat IPC: 0.957925 cumulative IPC: 0.476649 (Simulation time: 0 hr 22 min 22 sec) 
select_counter is 1023
Heartbeat CPU 0 instructions: 54000002 cycles: 97304045 heartbeat IPC: 0.935232 cumulative IPC: 0.482021 (Simulation time: 0 hr 22 min 45 sec) 
select_counter is 1023
Heartbeat CPU 0 instructions: 55000003 cycles: 98344802 heartbeat IPC: 0.96084 cumulative IPC: 0.487419 (Simulation time: 0 hr 23 min 7 sec) 
select_counter is 1022
Heartbeat CPU 0 instructions: 56000000 cycles: 100687061 heartbeat IPC: 0.426937 cumulative IPC: 0.485922 (Simulation time: 0 hr 23 min 32 sec) 
select_counter is 1023
Heartbeat CPU 0 instructions: 57000003 cycles: 102803480 heartbeat IPC: 0.472498 cumulative IPC: 0.485629 (Simulation time: 0 hr 23 min 55 sec) 
select_counter is 1022
Heartbeat CPU 0 instructions: 58000000 cycles: 106262246 heartbeat IPC: 0.28912 cumulative IPC: 0.478848 (Simulation time: 0 hr 24 min 22 sec) 
select_counter is 1023
Heartbeat CPU 0 instructions: 59000003 cycles: 109714333 heartbeat IPC: 0.289681 cumulative IPC: 0.472551 (Simulation time: 0 hr 24 min 47 sec) 
select_counter is 1022
Heartbeat CPU 0 instructions: 60000000 cycles: 112237520 heartbeat IPC: 0.396323 cumulative IPC: 0.47074 (Simulation time: 0 hr 25 min 10 sec) 
select_counter is 1023
Heartbeat CPU 0 instructions: 61000001 cycles: 114181916 heartbeat IPC: 0.514299 cumulative IPC: 0.471523 (Simulation time: 0 hr 25 min 33 sec) 
select_counter is 1023
Heartbeat CPU 0 instructions: 62000001 cycles: 117622709 heartbeat IPC: 0.290631 cumulative IPC: 0.465946 (Simulation time: 0 hr 26 min 1 sec) 
select_counter is 1023
Heartbeat CPU 0 instructions: 63000000 cycles: 121067525 heartbeat IPC: 0.290291 cumulative IPC: 0.460686 (Simulation time: 0 hr 26 min 30 sec) 
select_counter is 1020
Heartbeat CPU 0 instructions: 64000000 cycles: 123778446 heartbeat IPC: 0.368878 cumulative IPC: 0.458573 (Simulation time: 0 hr 26 min 58 sec) 
select_counter is 1023
Heartbeat CPU 0 instructions: 65000000 cycles: 125550600 heartbeat IPC: 0.564285 cumulative IPC: 0.46014 (Simulation time: 0 hr 27 min 22 sec) 
select_counter is 1022
Heartbeat CPU 0 instructions: 66000000 cycles: 128987151 heartbeat IPC: 0.290989 cumulative IPC: 0.455413 (Simulation time: 0 hr 27 min 49 sec) 
select_counter is 1023
Heartbeat CPU 0 instructions: 67000001 cycles: 132428925 heartbeat IPC: 0.290548 cumulative IPC: 0.450924 (Simulation time: 0 hr 28 min 17 sec) 
select_counter is 1022
Heartbeat CPU 0 instructions: 68000000 cycles: 135324146 heartbeat IPC: 0.345396 cumulative IPC: 0.448561 (Simulation time: 0 hr 28 min 44 sec) 
select_counter is 1023
Heartbeat CPU 0 instructions: 69000001 cycles: 136896327 heartbeat IPC: 0.63606 cumulative IPC: 0.450813 (Simulation time: 0 hr 29 min 10 sec) 
select_counter is 1022
Heartbeat CPU 0 instructions: 70000001 cycles: 140335945 heartbeat IPC: 0.29073 cumulative IPC: 0.446714 (Simulation time: 0 hr 29 min 38 sec) 
select_counter is 1023
Heartbeat CPU 0 instructions: 71000001 cycles: 143781381 heartbeat IPC: 0.290239 cumulative IPC: 0.4428 (Simulation time: 0 hr 30 min 7 sec) 
select_counter is 1023
Heartbeat CPU 0 instructions: 72000000 cycles: 146698526 heartbeat IPC: 0.342801 cumulative IPC: 0.440727 (Simulation time: 0 hr 30 min 34 sec) 
select_counter is 1023
Heartbeat CPU 0 instructions: 73000000 cycles: 148285039 heartbeat IPC: 0.630313 cumulative IPC: 0.442841 (Simulation time: 0 hr 30 min 59 sec) 
select_counter is 1023
Heartbeat CPU 0 instructions: 74000003 cycles: 151725900 heartbeat IPC: 0.290626 cumulative IPC: 0.439246 (Simulation time: 0 hr 31 min 27 sec) 
select_counter is 1023
Heartbeat CPU 0 instructions: 75000001 cycles: 155159467 heartbeat IPC: 0.291242 cumulative IPC: 0.435839 (Simulation time: 0 hr 31 min 53 sec) 
select_counter is 1023
Heartbeat CPU 0 instructions: 76000000 cycles: 157945816 heartbeat IPC: 0.358892 cumulative IPC: 0.434427 (Simulation time: 0 hr 32 min 21 sec) 
select_counter is 1023
Heartbeat CPU 0 instructions: 77000001 cycles: 159628107 heartbeat IPC: 0.594428 cumulative IPC: 0.43618 (Simulation time: 0 hr 32 min 43 sec) 
select_counter is 1022
Heartbeat CPU 0 instructions: 78000000 cycles: 163074872 heartbeat IPC: 0.290127 cumulative IPC: 0.432974 (Simulation time: 0 hr 33 min 12 sec) 
select_counter is 1023
Heartbeat CPU 0 instructions: 79000000 cycles: 166679090 heartbeat IPC: 0.277453 cumulative IPC: 0.429485 (Simulation time: 0 hr 33 min 41 sec) 
select_counter is 1022
Heartbeat CPU 0 instructions: 80000000 cycles: 168597574 heartbeat IPC: 0.521245 cumulative IPC: 0.430568 (Simulation time: 0 hr 34 min 4 sec) 
select_counter is 1023
Heartbeat CPU 0 instructions: 81000001 cycles: 171159694 heartbeat IPC: 0.390302 cumulative IPC: 0.429944 (Simulation time: 0 hr 34 min 31 sec) 
select_counter is 1023
Heartbeat CPU 0 instructions: 82000000 cycles: 174589154 heartbeat IPC: 0.291591 cumulative IPC: 0.427129 (Simulation time: 0 hr 35 min 0 sec) 
select_counter is 1022
Heartbeat CPU 0 instructions: 83000000 cycles: 178026153 heartbeat IPC: 0.290951 cumulative IPC: 0.424408 (Simulation time: 0 hr 35 min 28 sec) 
select_counter is 1023
Heartbeat CPU 0 instructions: 84000000 cycles: 179904580 heartbeat IPC: 0.53236 cumulative IPC: 0.425574 (Simulation time: 0 hr 35 min 50 sec) 
select_counter is 1023
Heartbeat CPU 0 instructions: 85000003 cycles: 182493507 heartbeat IPC: 0.386262 cumulative IPC: 0.424997 (Simulation time: 0 hr 36 min 18 sec) 
select_counter is 1023
Heartbeat CPU 0 instructions: 86000001 cycles: 185932286 heartbeat IPC: 0.2908 cumulative IPC: 0.422432 (Simulation time: 0 hr 36 min 45 sec) 
select_counter is 1023
Heartbeat CPU 0 instructions: 87000000 cycles: 189372770 heartbeat IPC: 0.290656 cumulative IPC: 0.419959 (Simulation time: 0 hr 37 min 16 sec) 
select_counter is 1023
Heartbeat CPU 0 instructions: 88000000 cycles: 191091633 heartbeat IPC: 0.58178 cumulative IPC: 0.421462 (Simulation time: 0 hr 37 min 37 sec) 
select_counter is 1023
Heartbeat CPU 0 instructions: 89000000 cycles: 196086532 heartbeat IPC: 0.200204 cumulative IPC: 0.415648 (Simulation time: 0 hr 38 min 8 sec) 
select_counter is 1022
Heartbeat CPU 0 instructions: 90000002 cycles: 197131328 heartbeat IPC: 0.957127 cumulative IPC: 0.418608 (Simulation time: 0 hr 38 min 27 sec) 
select_counter is 1023
Heartbeat CPU 0 instructions: 91000001 cycles: 198176695 heartbeat IPC: 0.956601 cumulative IPC: 0.421535 (Simulation time: 0 hr 38 min 50 sec) 
select_counter is 1023
Heartbeat CPU 0 instructions: 92000000 cycles: 199221545 heartbeat IPC: 0.957074 cumulative IPC: 0.424431 (Simulation time: 0 hr 39 min 9 sec) 
select_counter is 1023
Heartbeat CPU 0 instructions: 93000002 cycles: 200266471 heartbeat IPC: 0.957007 cumulative IPC: 0.427296 (Simulation time: 0 hr 39 min 28 sec) 
select_counter is 1022
Heartbeat CPU 0 instructions: 94000001 cycles: 201310774 heartbeat IPC: 0.957576 cumulative IPC: 0.430132 (Simulation time: 0 hr 39 min 49 sec) 
select_counter is 1023
Heartbeat CPU 0 instructions: 95000000 cycles: 202355521 heartbeat IPC: 0.957169 cumulative IPC: 0.432936 (Simulation time: 0 hr 40 min 9 sec) 
select_counter is 1023
Heartbeat CPU 0 instructions: 96000000 cycles: 203401376 heartbeat IPC: 0.956155 cumulative IPC: 0.435709 (Simulation time: 0 hr 40 min 26 sec) 
select_counter is 1023
Heartbeat CPU 0 instructions: 97000002 cycles: 204473629 heartbeat IPC: 0.932618 cumulative IPC: 0.438393 (Simulation time: 0 hr 40 min 43 sec) 
select_counter is 1023
Heartbeat CPU 0 instructions: 98000000 cycles: 205519892 heartbeat IPC: 0.955781 cumulative IPC: 0.441107 (Simulation time: 0 hr 41 min 2 sec) 
select_counter is 1023
Heartbeat CPU 0 instructions: 99000003 cycles: 206559642 heartbeat IPC: 0.961773 cumulative IPC: 0.443806 (Simulation time: 0 hr 41 min 21 sec) 
select_counter is 1023
Heartbeat CPU 0 instructions: 100000000 cycles: 207597390 heartbeat IPC: 0.963622 cumulative IPC: 0.446482 (Simulation time: 0 hr 41 min 40 sec) 
select_counter is 1022
Heartbeat CPU 0 instructions: 101000001 cycles: 208639492 heartbeat IPC: 0.9596 cumulative IPC: 0.449122 (Simulation time: 0 hr 41 min 58 sec) 
select_counter is 1022
Heartbeat CPU 0 instructions: 102000001 cycles: 212032663 heartbeat IPC: 0.29471 cumulative IPC: 0.446578 (Simulation time: 0 hr 42 min 19 sec) 
select_counter is 1020
Heartbeat CPU 0 instructions: 103000000 cycles: 213463698 heartbeat IPC: 0.698794 cumulative IPC: 0.448318 (Simulation time: 0 hr 42 min 35 sec) 
select_counter is 1018
Heartbeat CPU 0 instructions: 104000000 cycles: 216561518 heartbeat IPC: 0.322808 cumulative IPC: 0.446471 (Simulation time: 0 hr 42 min 53 sec) 
select_counter is 1023
Heartbeat CPU 0 instructions: 105000000 cycles: 219997008 heartbeat IPC: 0.291079 cumulative IPC: 0.443976 (Simulation time: 0 hr 43 min 14 sec) 
select_counter is 1023
Heartbeat CPU 0 instructions: 106000000 cycles: 223391452 heartbeat IPC: 0.294599 cumulative IPC: 0.441644 (Simulation time: 0 hr 43 min 33 sec) 
select_counter is 1021
Heartbeat CPU 0 instructions: 107000001 cycles: 224986619 heartbeat IPC: 0.626894 cumulative IPC: 0.442993 (Simulation time: 0 hr 43 min 50 sec) 
select_counter is 1020
Heartbeat CPU 0 instructions: 108000000 cycles: 227901389 heartbeat IPC: 0.34308 cumulative IPC: 0.441681 (Simulation time: 0 hr 44 min 8 sec) 
select_counter is 1023
Heartbeat CPU 0 instructions: 109000000 cycles: 231349336 heartbeat IPC: 0.290028 cumulative IPC: 0.43936 (Simulation time: 0 hr 44 min 25 sec) 
select_counter is 1022
Heartbeat CPU 0 instructions: 110000000 cycles: 234766395 heartbeat IPC: 0.292649 cumulative IPC: 0.437169 (Simulation time: 0 hr 44 min 42 sec) 
select_counter is 1023
Finished CPU 0 instructions: 100000003 cycles: 228744683 cummulative IPC: 0.437169 (Simulation time: 0 hr 44 min 42 sec) 

ChampSim completed all CPUs

Region of Interest Statistics

CPU 0 cummulative IPC: 0.437169 instructions: 100000003 cycles: 228744683
LLC TOTAL     ACCESS:    1769069  HIT:    1122597  MISS:     646472
LLC LOAD      ACCESS:    1739414  HIT:    1113149  MISS:     626265
LLC RFO       ACCESS:      12908  HIT:       2264  MISS:      10644
LLC PREFETCH  ACCESS:          0  HIT:          0  MISS:          0
LLC WRITEBACK ACCESS:      16747  HIT:       7184  MISS:       9563
Ship samples: 
13, 47, 68, 102, 133, 185, 210, 244, 285, 307, 322, 374, 388, 429, 462, 494, 518, 572, 603, 608, 664, 672, 716, 764, 780, 818, 840, 883, 925, 955, 972, 994, 1043, 1061, 1101, 1134, 1157, 1203, 1238, 1253, 1295, 1335, 1351, 1376, 1439, 1458, 1503, 1513, 1537, 1593, 1613, 1644, 1683, 1725, 1739, 1790, 1815, 1826, 1882, 1892, 1920, 1968, 2002, 2028, 
Lime duel samples: 
3, 125, 223, 312, 385, 511, 586, 697, 777, 879, 988, 1069, 1158, 1276, 1347, 1469, 1548, 1632, 1743, 1846, 1946, 
Lime samples: 
3, 125, 223, 312, 385, 511, 586, 697, 777, 879, 988, 1069, 1158, 1276, 1347, 1469, 1548, 1632, 1743, 1846, 1946, 
Insertion Distribution: 
	LOAD 19 0 0 0 0 0 984 23940 
	RFO 0 0 0 0 0 0 88 261 
	PREF 0 0 0 0 0 0 0 0 
	WRITEBACK 0 0 0 0 0 0 0 102 
Total Prefetch Downgrades: 0
