
*** ChampSim Multicore Out-of-Order Simulator ***

Warmup Instructions: 10000000
Simulation Instructions: 100000000
Configuration: 1
Number of CPUs: 1
LLC sets: 2048
LLC ways: 16
Off-chip DRAM Channels: 1 Width: 64-bit Data Rate: 1600 MT/s

CPU 0 runs /datasets/cs240c-wi22-a00-public/data/Assignment2-gz/soplex_66B.trace.gz
Heartbeat CPU 0 instructions: 1000003 cycles: 416344 heartbeat IPC: 2.40187 cumulative IPC: 2.40187 (Simulation time: 0 hr 0 min 22 sec) 
select_counter is 1023
Heartbeat CPU 0 instructions: 2000002 cycles: 842810 heartbeat IPC: 2.34485 cumulative IPC: 2.37302 (Simulation time: 0 hr 0 min 46 sec) 
select_counter is 1023
Heartbeat CPU 0 instructions: 3000003 cycles: 1252435 heartbeat IPC: 2.44126 cumulative IPC: 2.39534 (Simulation time: 0 hr 1 min 10 sec) 
select_counter is 1022
Heartbeat CPU 0 instructions: 4000000 cycles: 1637620 heartbeat IPC: 2.59615 cumulative IPC: 2.44257 (Simulation time: 0 hr 1 min 33 sec) 
select_counter is 1022
Heartbeat CPU 0 instructions: 5000000 cycles: 2038966 heartbeat IPC: 2.49162 cumulative IPC: 2.45222 (Simulation time: 0 hr 1 min 52 sec) 
select_counter is 1023
Heartbeat CPU 0 instructions: 6000000 cycles: 2499198 heartbeat IPC: 2.17282 cumulative IPC: 2.40077 (Simulation time: 0 hr 2 min 12 sec) 
select_counter is 1023
Heartbeat CPU 0 instructions: 7000002 cycles: 2871533 heartbeat IPC: 2.68576 cumulative IPC: 2.43772 (Simulation time: 0 hr 2 min 36 sec) 
select_counter is 1023
Heartbeat CPU 0 instructions: 8000000 cycles: 3297835 heartbeat IPC: 2.34575 cumulative IPC: 2.42583 (Simulation time: 0 hr 3 min 4 sec) 
select_counter is 1023
Heartbeat CPU 0 instructions: 9000003 cycles: 3737674 heartbeat IPC: 2.27357 cumulative IPC: 2.40792 (Simulation time: 0 hr 3 min 26 sec) 
select_counter is 1023
Heartbeat CPU 0 instructions: 10000001 cycles: 4151636 heartbeat IPC: 2.41568 cumulative IPC: 2.40869 (Simulation time: 0 hr 3 min 51 sec) 
select_counter is 1023

Warmup complete CPU 0 instructions: 10000001 cycles: 4151636 (Simulation time: 0 hr 3 min 51 sec) 

Heartbeat CPU 0 instructions: 11000001 cycles: 7976678 heartbeat IPC: 0.261435 cumulative IPC: 0.261435 (Simulation time: 0 hr 4 min 24 sec) 
select_counter is 1023
Heartbeat CPU 0 instructions: 12000000 cycles: 9681969 heartbeat IPC: 0.58641 cumulative IPC: 0.361642 (Simulation time: 0 hr 4 min 46 sec) 
select_counter is 1022
Heartbeat CPU 0 instructions: 13000001 cycles: 12939395 heartbeat IPC: 0.306991 cumulative IPC: 0.341384 (Simulation time: 0 hr 5 min 14 sec) 
select_counter is 1022
Heartbeat CPU 0 instructions: 14000002 cycles: 16035978 heartbeat IPC: 0.322937 cumulative IPC: 0.336577 (Simulation time: 0 hr 5 min 43 sec) 
select_counter is 1023
Heartbeat CPU 0 instructions: 15000002 cycles: 18798733 heartbeat IPC: 0.361958 cumulative IPC: 0.341365 (Simulation time: 0 hr 6 min 6 sec) 
select_counter is 1022
Heartbeat CPU 0 instructions: 16000000 cycles: 22114638 heartbeat IPC: 0.301576 cumulative IPC: 0.33402 (Simulation time: 0 hr 6 min 38 sec) 
select_counter is 1023
Heartbeat CPU 0 instructions: 17000001 cycles: 24970316 heartbeat IPC: 0.35018 cumulative IPC: 0.336237 (Simulation time: 0 hr 7 min 11 sec) 
select_counter is 1023
Heartbeat CPU 0 instructions: 18000000 cycles: 27551514 heartbeat IPC: 0.387417 cumulative IPC: 0.341882 (Simulation time: 0 hr 7 min 40 sec) 
select_counter is 986
Heartbeat CPU 0 instructions: 19000002 cycles: 31815379 heartbeat IPC: 0.234529 cumulative IPC: 0.325336 (Simulation time: 0 hr 8 min 13 sec) 
select_counter is 1023
Heartbeat CPU 0 instructions: 20000000 cycles: 33512792 heartbeat IPC: 0.589131 cumulative IPC: 0.340586 (Simulation time: 0 hr 8 min 33 sec) 
select_counter is 1023
Heartbeat CPU 0 instructions: 21000000 cycles: 36309202 heartbeat IPC: 0.357601 cumulative IPC: 0.342066 (Simulation time: 0 hr 8 min 59 sec) 
select_counter is 1023
Heartbeat CPU 0 instructions: 22000000 cycles: 39794310 heartbeat IPC: 0.286935 cumulative IPC: 0.336675 (Simulation time: 0 hr 9 min 30 sec) 
select_counter is 1023
Heartbeat CPU 0 instructions: 23000000 cycles: 42621363 heartbeat IPC: 0.353725 cumulative IPC: 0.337928 (Simulation time: 0 hr 9 min 52 sec) 
select_counter is 1023
Heartbeat CPU 0 instructions: 24000000 cycles: 45562937 heartbeat IPC: 0.339954 cumulative IPC: 0.338072 (Simulation time: 0 hr 10 min 19 sec) 
select_counter is 1023
Heartbeat CPU 0 instructions: 25000003 cycles: 48200788 heartbeat IPC: 0.379098 cumulative IPC: 0.340529 (Simulation time: 0 hr 10 min 56 sec) 
select_counter is 1023
Heartbeat CPU 0 instructions: 26000001 cycles: 51270938 heartbeat IPC: 0.325716 cumulative IPC: 0.339564 (Simulation time: 0 hr 11 min 26 sec) 
select_counter is 1023
Heartbeat CPU 0 instructions: 27000002 cycles: 55617657 heartbeat IPC: 0.230059 cumulative IPC: 0.330315 (Simulation time: 0 hr 12 min 3 sec) 
select_counter is 1023
Heartbeat CPU 0 instructions: 28000000 cycles: 57324875 heartbeat IPC: 0.585747 cumulative IPC: 0.338516 (Simulation time: 0 hr 12 min 24 sec) 
select_counter is 1022
Heartbeat CPU 0 instructions: 29000002 cycles: 59672774 heartbeat IPC: 0.425914 cumulative IPC: 0.342212 (Simulation time: 0 hr 12 min 49 sec) 
select_counter is 1021
Heartbeat CPU 0 instructions: 30000000 cycles: 63404840 heartbeat IPC: 0.267948 cumulative IPC: 0.337534 (Simulation time: 0 hr 13 min 23 sec) 
select_counter is 1023
Heartbeat CPU 0 instructions: 31000001 cycles: 66228498 heartbeat IPC: 0.354151 cumulative IPC: 0.33829 (Simulation time: 0 hr 13 min 45 sec) 
select_counter is 1019
Heartbeat CPU 0 instructions: 32000000 cycles: 69091519 heartbeat IPC: 0.349281 cumulative IPC: 0.338775 (Simulation time: 0 hr 14 min 12 sec) 
select_counter is 1023
Heartbeat CPU 0 instructions: 33000001 cycles: 73139798 heartbeat IPC: 0.247019 cumulative IPC: 0.333391 (Simulation time: 0 hr 14 min 49 sec) 
select_counter is 1023
Heartbeat CPU 0 instructions: 34000003 cycles: 75755948 heartbeat IPC: 0.382242 cumulative IPC: 0.335175 (Simulation time: 0 hr 15 min 21 sec) 
select_counter is 1023
Heartbeat CPU 0 instructions: 35000003 cycles: 79602078 heartbeat IPC: 0.260002 cumulative IPC: 0.331343 (Simulation time: 0 hr 15 min 52 sec) 
select_counter is 1023
Heartbeat CPU 0 instructions: 36000000 cycles: 81308925 heartbeat IPC: 0.585874 cumulative IPC: 0.336974 (Simulation time: 0 hr 16 min 11 sec) 
select_counter is 1022
Heartbeat CPU 0 instructions: 37000000 cycles: 84572358 heartbeat IPC: 0.306426 cumulative IPC: 0.335734 (Simulation time: 0 hr 16 min 38 sec) 
select_counter is 1023
Heartbeat CPU 0 instructions: 38000000 cycles: 87671318 heartbeat IPC: 0.322689 cumulative IPC: 0.33525 (Simulation time: 0 hr 17 min 6 sec) 
select_counter is 1023
Heartbeat CPU 0 instructions: 39000003 cycles: 90472340 heartbeat IPC: 0.357014 cumulative IPC: 0.335957 (Simulation time: 0 hr 17 min 29 sec) 
select_counter is 1023
Heartbeat CPU 0 instructions: 40000000 cycles: 93574006 heartbeat IPC: 0.322406 cumulative IPC: 0.335487 (Simulation time: 0 hr 17 min 57 sec) 
select_counter is 1023
Heartbeat CPU 0 instructions: 41000001 cycles: 96294937 heartbeat IPC: 0.367522 cumulative IPC: 0.336432 (Simulation time: 0 hr 18 min 26 sec) 
select_counter is 1022
Heartbeat CPU 0 instructions: 42000003 cycles: 98881825 heartbeat IPC: 0.386566 cumulative IPC: 0.337802 (Simulation time: 0 hr 18 min 51 sec) 
select_counter is 1022
Heartbeat CPU 0 instructions: 43000000 cycles: 103200118 heartbeat IPC: 0.231572 cumulative IPC: 0.33317 (Simulation time: 0 hr 19 min 20 sec) 
select_counter is 1023
Heartbeat CPU 0 instructions: 44000000 cycles: 104901593 heartbeat IPC: 0.587725 cumulative IPC: 0.337469 (Simulation time: 0 hr 19 min 39 sec) 
select_counter is 1023
Heartbeat CPU 0 instructions: 45000003 cycles: 107703087 heartbeat IPC: 0.356953 cumulative IPC: 0.337996 (Simulation time: 0 hr 20 min 7 sec) 
select_counter is 1023
Heartbeat CPU 0 instructions: 46000003 cycles: 111177147 heartbeat IPC: 0.287848 cumulative IPC: 0.336368 (Simulation time: 0 hr 20 min 33 sec) 
select_counter is 1023
Heartbeat CPU 0 instructions: 47000001 cycles: 113962791 heartbeat IPC: 0.358983 cumulative IPC: 0.336942 (Simulation time: 0 hr 20 min 53 sec) 
select_counter is 1023
Heartbeat CPU 0 instructions: 48000000 cycles: 116852875 heartbeat IPC: 0.34601 cumulative IPC: 0.337175 (Simulation time: 0 hr 21 min 13 sec) 
select_counter is 1023
Heartbeat CPU 0 instructions: 49000000 cycles: 120625419 heartbeat IPC: 0.265073 cumulative IPC: 0.334839 (Simulation time: 0 hr 21 min 46 sec) 
select_counter is 1022
Heartbeat CPU 0 instructions: 50000003 cycles: 127530282 heartbeat IPC: 0.144826 cumulative IPC: 0.324205 (Simulation time: 0 hr 22 min 31 sec) 
select_counter is 1023
Heartbeat CPU 0 instructions: 51000002 cycles: 130443148 heartbeat IPC: 0.343304 cumulative IPC: 0.324646 (Simulation time: 0 hr 23 min 7 sec) 
select_counter is 1023
Heartbeat CPU 0 instructions: 52000000 cycles: 135454632 heartbeat IPC: 0.199541 cumulative IPC: 0.319871 (Simulation time: 0 hr 23 min 41 sec) 
select_counter is 1023
Heartbeat CPU 0 instructions: 53000003 cycles: 139481293 heartbeat IPC: 0.248345 cumulative IPC: 0.317743 (Simulation time: 0 hr 24 min 11 sec) 
select_counter is 1023
Heartbeat CPU 0 instructions: 54000000 cycles: 143258201 heartbeat IPC: 0.264766 cumulative IPC: 0.316304 (Simulation time: 0 hr 24 min 43 sec) 
select_counter is 1023
Heartbeat CPU 0 instructions: 55000002 cycles: 148010915 heartbeat IPC: 0.210407 cumulative IPC: 0.312806 (Simulation time: 0 hr 25 min 10 sec) 
select_counter is 1023
Heartbeat CPU 0 instructions: 56000000 cycles: 151886113 heartbeat IPC: 0.258051 cumulative IPC: 0.311369 (Simulation time: 0 hr 25 min 37 sec) 
select_counter is 1023
Heartbeat CPU 0 instructions: 57000003 cycles: 154891666 heartbeat IPC: 0.332718 cumulative IPC: 0.311795 (Simulation time: 0 hr 26 min 2 sec) 
select_counter is 1021
Heartbeat CPU 0 instructions: 58000002 cycles: 157256064 heartbeat IPC: 0.42294 cumulative IPC: 0.313512 (Simulation time: 0 hr 26 min 28 sec) 
select_counter is 1023
Heartbeat CPU 0 instructions: 59000002 cycles: 159097596 heartbeat IPC: 0.543026 cumulative IPC: 0.316239 (Simulation time: 0 hr 26 min 54 sec) 
select_counter is 1023
Heartbeat CPU 0 instructions: 60000000 cycles: 161289171 heartbeat IPC: 0.456292 cumulative IPC: 0.318193 (Simulation time: 0 hr 27 min 16 sec) 
select_counter is 1023
Heartbeat CPU 0 instructions: 61000002 cycles: 164955127 heartbeat IPC: 0.272781 cumulative IPC: 0.317157 (Simulation time: 0 hr 27 min 43 sec) 
select_counter is 1023
Heartbeat CPU 0 instructions: 62000000 cycles: 168159535 heartbeat IPC: 0.31207 cumulative IPC: 0.317058 (Simulation time: 0 hr 28 min 12 sec) 
select_counter is 1023
Heartbeat CPU 0 instructions: 63000002 cycles: 171499041 heartbeat IPC: 0.299446 cumulative IPC: 0.316706 (Simulation time: 0 hr 28 min 41 sec) 
select_counter is 1016
Heartbeat CPU 0 instructions: 64000000 cycles: 174853935 heartbeat IPC: 0.298071 cumulative IPC: 0.31634 (Simulation time: 0 hr 29 min 4 sec) 
select_counter is 1023
Heartbeat CPU 0 instructions: 65000000 cycles: 179459427 heartbeat IPC: 0.217132 cumulative IPC: 0.313734 (Simulation time: 0 hr 29 min 34 sec) 
select_counter is 1021
Heartbeat CPU 0 instructions: 66000001 cycles: 181238788 heartbeat IPC: 0.562 cumulative IPC: 0.316228 (Simulation time: 0 hr 29 min 53 sec) 
select_counter is 1023
Heartbeat CPU 0 instructions: 67000000 cycles: 182999912 heartbeat IPC: 0.567819 cumulative IPC: 0.318706 (Simulation time: 0 hr 30 min 10 sec) 
select_counter is 1023
Heartbeat CPU 0 instructions: 68000000 cycles: 187204477 heartbeat IPC: 0.237837 cumulative IPC: 0.316848 (Simulation time: 0 hr 30 min 38 sec) 
select_counter is 1023
Heartbeat CPU 0 instructions: 69000000 cycles: 190203480 heartbeat IPC: 0.333444 cumulative IPC: 0.317116 (Simulation time: 0 hr 30 min 58 sec) 
select_counter is 1023
Heartbeat CPU 0 instructions: 70000001 cycles: 193104217 heartbeat IPC: 0.34474 cumulative IPC: 0.31754 (Simulation time: 0 hr 31 min 19 sec) 
select_counter is 1022
Heartbeat CPU 0 instructions: 71000000 cycles: 195840332 heartbeat IPC: 0.365481 cumulative IPC: 0.318224 (Simulation time: 0 hr 31 min 49 sec) 
select_counter is 1022
Heartbeat CPU 0 instructions: 72000000 cycles: 199536865 heartbeat IPC: 0.270524 cumulative IPC: 0.317322 (Simulation time: 0 hr 32 min 17 sec) 
select_counter is 1023
Heartbeat CPU 0 instructions: 73000002 cycles: 203121965 heartbeat IPC: 0.278933 cumulative IPC: 0.31663 (Simulation time: 0 hr 32 min 47 sec) 
select_counter is 1023
Heartbeat CPU 0 instructions: 74000000 cycles: 205652884 heartbeat IPC: 0.395113 cumulative IPC: 0.317616 (Simulation time: 0 hr 33 min 8 sec) 
select_counter is 1023
Heartbeat CPU 0 instructions: 75000002 cycles: 207377927 heartbeat IPC: 0.579697 cumulative IPC: 0.319841 (Simulation time: 0 hr 33 min 26 sec) 
select_counter is 1023
Heartbeat CPU 0 instructions: 76000000 cycles: 211362322 heartbeat IPC: 0.250979 cumulative IPC: 0.318516 (Simulation time: 0 hr 33 min 51 sec) 
select_counter is 1022
Heartbeat CPU 0 instructions: 77000000 cycles: 214203869 heartbeat IPC: 0.351921 cumulative IPC: 0.318968 (Simulation time: 0 hr 34 min 12 sec) 
select_counter is 1023
Heartbeat CPU 0 instructions: 78000003 cycles: 216992660 heartbeat IPC: 0.358579 cumulative IPC: 0.319487 (Simulation time: 0 hr 34 min 32 sec) 
select_counter is 1023
Heartbeat CPU 0 instructions: 79000001 cycles: 220409492 heartbeat IPC: 0.292668 cumulative IPC: 0.319064 (Simulation time: 0 hr 34 min 58 sec) 
select_counter is 1023
Heartbeat CPU 0 instructions: 80000000 cycles: 224000253 heartbeat IPC: 0.278492 cumulative IPC: 0.318401 (Simulation time: 0 hr 35 min 23 sec) 
select_counter is 1023
Heartbeat CPU 0 instructions: 81000003 cycles: 227803772 heartbeat IPC: 0.262915 cumulative IPC: 0.317457 (Simulation time: 0 hr 35 min 53 sec) 
select_counter is 1023
Heartbeat CPU 0 instructions: 82000000 cycles: 230007579 heartbeat IPC: 0.453759 cumulative IPC: 0.318787 (Simulation time: 0 hr 36 min 12 sec) 
select_counter is 1021
Heartbeat CPU 0 instructions: 83000001 cycles: 231726117 heartbeat IPC: 0.581891 cumulative IPC: 0.320774 (Simulation time: 0 hr 36 min 29 sec) 
select_counter is 1023
Heartbeat CPU 0 instructions: 84000000 cycles: 235795408 heartbeat IPC: 0.245743 cumulative IPC: 0.319456 (Simulation time: 0 hr 36 min 54 sec) 
select_counter is 1023
Heartbeat CPU 0 instructions: 85000000 cycles: 238575401 heartbeat IPC: 0.359713 cumulative IPC: 0.319933 (Simulation time: 0 hr 37 min 13 sec) 
select_counter is 1023
Heartbeat CPU 0 instructions: 86000000 cycles: 241452965 heartbeat IPC: 0.347516 cumulative IPC: 0.320268 (Simulation time: 0 hr 37 min 32 sec) 
select_counter is 1023
Heartbeat CPU 0 instructions: 87000000 cycles: 244606172 heartbeat IPC: 0.317137 cumulative IPC: 0.320227 (Simulation time: 0 hr 37 min 58 sec) 
select_counter is 998
Heartbeat CPU 0 instructions: 88000000 cycles: 247891333 heartbeat IPC: 0.304399 cumulative IPC: 0.320014 (Simulation time: 0 hr 38 min 22 sec) 
select_counter is 1022
Heartbeat CPU 0 instructions: 89000001 cycles: 252144641 heartbeat IPC: 0.235111 cumulative IPC: 0.318557 (Simulation time: 0 hr 38 min 51 sec) 
select_counter is 1020
Heartbeat CPU 0 instructions: 90000002 cycles: 253865071 heartbeat IPC: 0.581251 cumulative IPC: 0.320367 (Simulation time: 0 hr 39 min 7 sec) 
select_counter is 1022
Heartbeat CPU 0 instructions: 91000000 cycles: 255681632 heartbeat IPC: 0.55049 cumulative IPC: 0.322029 (Simulation time: 0 hr 39 min 22 sec) 
select_counter is 1022
Heartbeat CPU 0 instructions: 92000000 cycles: 259756532 heartbeat IPC: 0.245405 cumulative IPC: 0.320808 (Simulation time: 0 hr 39 min 44 sec) 
select_counter is 1023
Heartbeat CPU 0 instructions: 93000000 cycles: 262646172 heartbeat IPC: 0.346064 cumulative IPC: 0.32109 (Simulation time: 0 hr 40 min 1 sec) 
select_counter is 1023
Heartbeat CPU 0 instructions: 94000001 cycles: 265425886 heartbeat IPC: 0.35975 cumulative IPC: 0.321501 (Simulation time: 0 hr 40 min 17 sec) 
select_counter is 1023
Heartbeat CPU 0 instructions: 95000003 cycles: 269195384 heartbeat IPC: 0.265288 cumulative IPC: 0.320702 (Simulation time: 0 hr 40 min 42 sec) 
select_counter is 1023
Heartbeat CPU 0 instructions: 96000000 cycles: 271778845 heartbeat IPC: 0.387076 cumulative IPC: 0.321342 (Simulation time: 0 hr 41 min 1 sec) 
select_counter is 1022
Heartbeat CPU 0 instructions: 97000003 cycles: 275761210 heartbeat IPC: 0.251108 cumulative IPC: 0.320313 (Simulation time: 0 hr 41 min 23 sec) 
select_counter is 1022
Heartbeat CPU 0 instructions: 98000003 cycles: 277458944 heartbeat IPC: 0.58902 cumulative IPC: 0.321982 (Simulation time: 0 hr 41 min 36 sec) 
select_counter is 1023
Heartbeat CPU 0 instructions: 99000000 cycles: 280458995 heartbeat IPC: 0.333327 cumulative IPC: 0.322105 (Simulation time: 0 hr 41 min 53 sec) 
select_counter is 1023
Heartbeat CPU 0 instructions: 100000000 cycles: 283814131 heartbeat IPC: 0.298051 cumulative IPC: 0.321816 (Simulation time: 0 hr 42 min 12 sec) 
select_counter is 1023
Heartbeat CPU 0 instructions: 101000001 cycles: 286589010 heartbeat IPC: 0.360376 cumulative IPC: 0.322195 (Simulation time: 0 hr 42 min 26 sec) 
select_counter is 1021
Heartbeat CPU 0 instructions: 102000000 cycles: 289587820 heartbeat IPC: 0.333465 cumulative IPC: 0.322314 (Simulation time: 0 hr 42 min 42 sec) 
select_counter is 1023
Heartbeat CPU 0 instructions: 103000002 cycles: 293467853 heartbeat IPC: 0.25773 cumulative IPC: 0.321448 (Simulation time: 0 hr 43 min 3 sec) 
select_counter is 1022
Heartbeat CPU 0 instructions: 104000000 cycles: 296452412 heartbeat IPC: 0.335057 cumulative IPC: 0.321587 (Simulation time: 0 hr 43 min 25 sec) 
select_counter is 1023
Heartbeat CPU 0 instructions: 105000000 cycles: 299517412 heartbeat IPC: 0.326264 cumulative IPC: 0.321635 (Simulation time: 0 hr 43 min 41 sec) 
select_counter is 1023
Heartbeat CPU 0 instructions: 106000001 cycles: 301230239 heartbeat IPC: 0.583831 cumulative IPC: 0.323147 (Simulation time: 0 hr 43 min 54 sec) 
select_counter is 1023
Heartbeat CPU 0 instructions: 107000001 cycles: 304957593 heartbeat IPC: 0.268287 cumulative IPC: 0.322467 (Simulation time: 0 hr 44 min 13 sec) 
select_counter is 1023
Heartbeat CPU 0 instructions: 108000000 cycles: 307747290 heartbeat IPC: 0.358461 cumulative IPC: 0.322798 (Simulation time: 0 hr 44 min 27 sec) 
select_counter is 1023
Heartbeat CPU 0 instructions: 109000003 cycles: 310512117 heartbeat IPC: 0.361687 cumulative IPC: 0.323149 (Simulation time: 0 hr 44 min 41 sec) 
select_counter is 1022
Heartbeat CPU 0 instructions: 110000003 cycles: 314017405 heartbeat IPC: 0.285283 cumulative IPC: 0.32272 (Simulation time: 0 hr 45 min 0 sec) 
select_counter is 1023
Finished CPU 0 instructions: 100000002 cycles: 309865769 cummulative IPC: 0.32272 (Simulation time: 0 hr 45 min 0 sec) 

ChampSim completed all CPUs

Region of Interest Statistics

CPU 0 cummulative IPC: 0.32272 instructions: 100000002 cycles: 309865769
LLC TOTAL     ACCESS:    5290163  HIT:    2678188  MISS:    2611975
LLC LOAD      ACCESS:    3127290  HIT:    1376492  MISS:    1750798
LLC RFO       ACCESS:     652055  HIT:     255982  MISS:     396073
LLC PREFETCH  ACCESS:          0  HIT:          0  MISS:          0
LLC WRITEBACK ACCESS:    1510818  HIT:    1045714  MISS:     465104
Ship samples: 
25, 51, 85, 100, 133, 177, 220, 244, 285, 315, 335, 367, 406, 429, 475, 481, 518, 568, 586, 616, 649, 693, 724, 758, 773, 820, 842, 880, 922, 947, 969, 1013, 1027, 1076, 1110, 1136, 1160, 1184, 1237, 1251, 1284, 1323, 1366, 1376, 1439, 1453, 1484, 1524, 1552, 1579, 1628, 1650, 1664, 1698, 1731, 1789, 1821, 1845, 1861, 1892, 1929, 1964, 2004, 2021, 
Lime duel samples: 
5, 125, 215, 290, 400, 498, 579, 703, 784, 895, 989, 1069, 1164, 1264, 1358, 1459, 1551, 1659, 1749, 1833, 1924, 
Lime samples: 
5, 125, 215, 290, 400, 498, 579, 703, 784, 895, 989, 1069, 1164, 1264, 1358, 1459, 1551, 1659, 1749, 1833, 1924, 
Insertion Distribution: 
	LOAD 10019 0 0 0 0 0 6490 45841 
	RFO 3010 0 0 0 0 0 2740 8228 
	PREF 0 0 0 0 0 0 0 0 
	WRITEBACK 0 0 0 0 0 0 0 15145 
Total Prefetch Downgrades: 0
