
*** ChampSim Multicore Out-of-Order Simulator ***

Warmup Instructions: 10000000
Simulation Instructions: 100000000
Configuration: 1
Number of CPUs: 1
LLC sets: 2048
LLC ways: 16
Off-chip DRAM Channels: 1 Width: 64-bit Data Rate: 1600 MT/s

CPU 0 runs /datasets/cs240c-wi22-a00-public/data/Assignment2-gz/zeusmp_100B.trace.gz
Heartbeat CPU 0 instructions: 1000002 cycles: 464468 heartbeat IPC: 2.15301 cumulative IPC: 2.15301 (Simulation time: 0 hr 0 min 25 sec) 
select_counter is 621
Heartbeat CPU 0 instructions: 2000001 cycles: 928928 heartbeat IPC: 2.15304 cumulative IPC: 2.15302 (Simulation time: 0 hr 0 min 50 sec) 
select_counter is 710
Heartbeat CPU 0 instructions: 3000003 cycles: 1393617 heartbeat IPC: 2.15198 cumulative IPC: 2.15267 (Simulation time: 0 hr 1 min 15 sec) 
select_counter is 782
Heartbeat CPU 0 instructions: 4000000 cycles: 1858062 heartbeat IPC: 2.1531 cumulative IPC: 2.15278 (Simulation time: 0 hr 1 min 41 sec) 
select_counter is 855
Heartbeat CPU 0 instructions: 5000003 cycles: 2322491 heartbeat IPC: 2.15319 cumulative IPC: 2.15286 (Simulation time: 0 hr 2 min 6 sec) 
select_counter is 941
Heartbeat CPU 0 instructions: 6000001 cycles: 2787246 heartbeat IPC: 2.15167 cumulative IPC: 2.15266 (Simulation time: 0 hr 2 min 29 sec) 
select_counter is 1018
Heartbeat CPU 0 instructions: 7000001 cycles: 3251587 heartbeat IPC: 2.15359 cumulative IPC: 2.1528 (Simulation time: 0 hr 2 min 55 sec) 
select_counter is 1021
Heartbeat CPU 0 instructions: 8000000 cycles: 3716295 heartbeat IPC: 2.15189 cumulative IPC: 2.15268 (Simulation time: 0 hr 3 min 20 sec) 
select_counter is 1023
Heartbeat CPU 0 instructions: 9000003 cycles: 4180636 heartbeat IPC: 2.1536 cumulative IPC: 2.15278 (Simulation time: 0 hr 3 min 45 sec) 
select_counter is 1023
Heartbeat CPU 0 instructions: 10000001 cycles: 4645607 heartbeat IPC: 2.15067 cumulative IPC: 2.15257 (Simulation time: 0 hr 4 min 10 sec) 
select_counter is 1023

Warmup complete CPU 0 instructions: 10000001 cycles: 4645607 (Simulation time: 0 hr 4 min 10 sec) 

Heartbeat CPU 0 instructions: 11000000 cycles: 5567006 heartbeat IPC: 1.08531 cumulative IPC: 1.08531 (Simulation time: 0 hr 4 min 41 sec) 
select_counter is 1023
Heartbeat CPU 0 instructions: 12000000 cycles: 6493504 heartbeat IPC: 1.07933 cumulative IPC: 1.08231 (Simulation time: 0 hr 5 min 10 sec) 
select_counter is 1022
Heartbeat CPU 0 instructions: 13000001 cycles: 7436971 heartbeat IPC: 1.05992 cumulative IPC: 1.07474 (Simulation time: 0 hr 5 min 39 sec) 
select_counter is 1021
Heartbeat CPU 0 instructions: 14000003 cycles: 8359558 heartbeat IPC: 1.08391 cumulative IPC: 1.07702 (Simulation time: 0 hr 6 min 9 sec) 
select_counter is 1022
Heartbeat CPU 0 instructions: 15000002 cycles: 9284742 heartbeat IPC: 1.08087 cumulative IPC: 1.07779 (Simulation time: 0 hr 6 min 40 sec) 
select_counter is 1022
Heartbeat CPU 0 instructions: 16000000 cycles: 10208781 heartbeat IPC: 1.0822 cumulative IPC: 1.07852 (Simulation time: 0 hr 7 min 11 sec) 
select_counter is 1023
Heartbeat CPU 0 instructions: 17000003 cycles: 11175548 heartbeat IPC: 1.03438 cumulative IPC: 1.07199 (Simulation time: 0 hr 7 min 41 sec) 
select_counter is 1023
Heartbeat CPU 0 instructions: 18000000 cycles: 12065073 heartbeat IPC: 1.12419 cumulative IPC: 1.07824 (Simulation time: 0 hr 8 min 9 sec) 
select_counter is 1023
Heartbeat CPU 0 instructions: 19000002 cycles: 12952531 heartbeat IPC: 1.12682 cumulative IPC: 1.08343 (Simulation time: 0 hr 8 min 38 sec) 
select_counter is 1021
Heartbeat CPU 0 instructions: 20000000 cycles: 13814840 heartbeat IPC: 1.15967 cumulative IPC: 1.0906 (Simulation time: 0 hr 9 min 8 sec) 
select_counter is 1023
Heartbeat CPU 0 instructions: 21000001 cycles: 14691445 heartbeat IPC: 1.14077 cumulative IPC: 1.09498 (Simulation time: 0 hr 9 min 38 sec) 
select_counter is 1023
Heartbeat CPU 0 instructions: 22000001 cycles: 15558785 heartbeat IPC: 1.15295 cumulative IPC: 1.09959 (Simulation time: 0 hr 10 min 6 sec) 
select_counter is 1023
Heartbeat CPU 0 instructions: 23000002 cycles: 16443371 heartbeat IPC: 1.13047 cumulative IPC: 1.1019 (Simulation time: 0 hr 10 min 37 sec) 
select_counter is 1022
Heartbeat CPU 0 instructions: 24000000 cycles: 17308493 heartbeat IPC: 1.1559 cumulative IPC: 1.10559 (Simulation time: 0 hr 11 min 8 sec) 
select_counter is 1021
Heartbeat CPU 0 instructions: 25000002 cycles: 18186977 heartbeat IPC: 1.13833 cumulative IPC: 1.10772 (Simulation time: 0 hr 11 min 39 sec) 
select_counter is 1023
Heartbeat CPU 0 instructions: 26000001 cycles: 19051858 heartbeat IPC: 1.15623 cumulative IPC: 1.11063 (Simulation time: 0 hr 12 min 6 sec) 
select_counter is 1023
Heartbeat CPU 0 instructions: 27000000 cycles: 19933621 heartbeat IPC: 1.13409 cumulative IPC: 1.11198 (Simulation time: 0 hr 12 min 35 sec) 
select_counter is 1023
Heartbeat CPU 0 instructions: 28000000 cycles: 20803095 heartbeat IPC: 1.15012 cumulative IPC: 1.11403 (Simulation time: 0 hr 13 min 5 sec) 
select_counter is 1023
Heartbeat CPU 0 instructions: 29000000 cycles: 21668594 heartbeat IPC: 1.1554 cumulative IPC: 1.11614 (Simulation time: 0 hr 13 min 36 sec) 
select_counter is 1022
Heartbeat CPU 0 instructions: 30000003 cycles: 22546307 heartbeat IPC: 1.13933 cumulative IPC: 1.11727 (Simulation time: 0 hr 14 min 4 sec) 
select_counter is 1023
Heartbeat CPU 0 instructions: 31000000 cycles: 23411560 heartbeat IPC: 1.15573 cumulative IPC: 1.11905 (Simulation time: 0 hr 14 min 32 sec) 
select_counter is 1023
Heartbeat CPU 0 instructions: 32000000 cycles: 24293681 heartbeat IPC: 1.13363 cumulative IPC: 1.1197 (Simulation time: 0 hr 14 min 59 sec) 
select_counter is 1022
Heartbeat CPU 0 instructions: 33000002 cycles: 25159132 heartbeat IPC: 1.15547 cumulative IPC: 1.12121 (Simulation time: 0 hr 15 min 28 sec) 
select_counter is 1023
Heartbeat CPU 0 instructions: 34000002 cycles: 26037371 heartbeat IPC: 1.13864 cumulative IPC: 1.12193 (Simulation time: 0 hr 15 min 58 sec) 
select_counter is 1023
Heartbeat CPU 0 instructions: 35000003 cycles: 26904065 heartbeat IPC: 1.15381 cumulative IPC: 1.12317 (Simulation time: 0 hr 16 min 27 sec) 
select_counter is 1022
Heartbeat CPU 0 instructions: 36000000 cycles: 27783242 heartbeat IPC: 1.13742 cumulative IPC: 1.12371 (Simulation time: 0 hr 16 min 52 sec) 
select_counter is 1023
Heartbeat CPU 0 instructions: 37000001 cycles: 28653396 heartbeat IPC: 1.14922 cumulative IPC: 1.12463 (Simulation time: 0 hr 17 min 18 sec) 
select_counter is 1022
Heartbeat CPU 0 instructions: 38000003 cycles: 29529415 heartbeat IPC: 1.14153 cumulative IPC: 1.12523 (Simulation time: 0 hr 17 min 48 sec) 
select_counter is 1019
Heartbeat CPU 0 instructions: 39000001 cycles: 30395749 heartbeat IPC: 1.15429 cumulative IPC: 1.12621 (Simulation time: 0 hr 18 min 16 sec) 
select_counter is 1021
Heartbeat CPU 0 instructions: 40000000 cycles: 31273857 heartbeat IPC: 1.13881 cumulative IPC: 1.12662 (Simulation time: 0 hr 18 min 46 sec) 
select_counter is 1023
Heartbeat CPU 0 instructions: 41000002 cycles: 32144464 heartbeat IPC: 1.14863 cumulative IPC: 1.12732 (Simulation time: 0 hr 19 min 8 sec) 
select_counter is 1023
Heartbeat CPU 0 instructions: 42000000 cycles: 33009808 heartbeat IPC: 1.15561 cumulative IPC: 1.12818 (Simulation time: 0 hr 19 min 38 sec) 
select_counter is 1023
Heartbeat CPU 0 instructions: 43000003 cycles: 33886437 heartbeat IPC: 1.14074 cumulative IPC: 1.12856 (Simulation time: 0 hr 20 min 3 sec) 
select_counter is 1022
Heartbeat CPU 0 instructions: 44000000 cycles: 34752111 heartbeat IPC: 1.15517 cumulative IPC: 1.12932 (Simulation time: 0 hr 20 min 25 sec) 
select_counter is 1022
Heartbeat CPU 0 instructions: 45000001 cycles: 35628561 heartbeat IPC: 1.14097 cumulative IPC: 1.12965 (Simulation time: 0 hr 20 min 47 sec) 
select_counter is 1023
Heartbeat CPU 0 instructions: 46000002 cycles: 36499630 heartbeat IPC: 1.14802 cumulative IPC: 1.13016 (Simulation time: 0 hr 21 min 11 sec) 
select_counter is 1022
Heartbeat CPU 0 instructions: 47000003 cycles: 37378089 heartbeat IPC: 1.13836 cumulative IPC: 1.13038 (Simulation time: 0 hr 21 min 35 sec) 
select_counter is 1023
Heartbeat CPU 0 instructions: 48000000 cycles: 38243908 heartbeat IPC: 1.15497 cumulative IPC: 1.13101 (Simulation time: 0 hr 21 min 57 sec) 
select_counter is 1022
Heartbeat CPU 0 instructions: 49000001 cycles: 39122323 heartbeat IPC: 1.13842 cumulative IPC: 1.1312 (Simulation time: 0 hr 22 min 20 sec) 
select_counter is 1023
Heartbeat CPU 0 instructions: 50000001 cycles: 39992513 heartbeat IPC: 1.14917 cumulative IPC: 1.13164 (Simulation time: 0 hr 22 min 47 sec) 
select_counter is 1022
Heartbeat CPU 0 instructions: 51000002 cycles: 40868283 heartbeat IPC: 1.14185 cumulative IPC: 1.13189 (Simulation time: 0 hr 23 min 15 sec) 
select_counter is 1023
Heartbeat CPU 0 instructions: 52000000 cycles: 41735851 heartbeat IPC: 1.15265 cumulative IPC: 1.13237 (Simulation time: 0 hr 23 min 36 sec) 
select_counter is 1022
Heartbeat CPU 0 instructions: 53000001 cycles: 42611660 heartbeat IPC: 1.1418 cumulative IPC: 1.13259 (Simulation time: 0 hr 24 min 5 sec) 
select_counter is 1023
Heartbeat CPU 0 instructions: 54000003 cycles: 43475757 heartbeat IPC: 1.15728 cumulative IPC: 1.13314 (Simulation time: 0 hr 24 min 33 sec) 
select_counter is 1022
Heartbeat CPU 0 instructions: 55000003 cycles: 44353948 heartbeat IPC: 1.1387 cumulative IPC: 1.13326 (Simulation time: 0 hr 25 min 0 sec) 
select_counter is 1023
Heartbeat CPU 0 instructions: 56000000 cycles: 45219868 heartbeat IPC: 1.15484 cumulative IPC: 1.13372 (Simulation time: 0 hr 25 min 26 sec) 
select_counter is 1022
Heartbeat CPU 0 instructions: 57000003 cycles: 46083563 heartbeat IPC: 1.15782 cumulative IPC: 1.13423 (Simulation time: 0 hr 25 min 53 sec) 
select_counter is 1023
Heartbeat CPU 0 instructions: 58000003 cycles: 46961273 heartbeat IPC: 1.13933 cumulative IPC: 1.13433 (Simulation time: 0 hr 26 min 18 sec) 
select_counter is 1023
Heartbeat CPU 0 instructions: 59000002 cycles: 47831173 heartbeat IPC: 1.14956 cumulative IPC: 1.13464 (Simulation time: 0 hr 26 min 46 sec) 
select_counter is 1023
Heartbeat CPU 0 instructions: 60000000 cycles: 48711450 heartbeat IPC: 1.136 cumulative IPC: 1.13467 (Simulation time: 0 hr 27 min 11 sec) 
select_counter is 1023
Heartbeat CPU 0 instructions: 61000000 cycles: 49578386 heartbeat IPC: 1.15349 cumulative IPC: 1.13503 (Simulation time: 0 hr 27 min 38 sec) 
select_counter is 1023
Heartbeat CPU 0 instructions: 62000001 cycles: 50460126 heartbeat IPC: 1.13412 cumulative IPC: 1.13501 (Simulation time: 0 hr 28 min 7 sec) 
select_counter is 1023
Heartbeat CPU 0 instructions: 63000001 cycles: 51327962 heartbeat IPC: 1.15229 cumulative IPC: 1.13533 (Simulation time: 0 hr 28 min 33 sec) 
select_counter is 1023
Heartbeat CPU 0 instructions: 64000000 cycles: 52212182 heartbeat IPC: 1.13094 cumulative IPC: 1.13525 (Simulation time: 0 hr 29 min 0 sec) 
select_counter is 1023
Heartbeat CPU 0 instructions: 65000003 cycles: 53080054 heartbeat IPC: 1.15225 cumulative IPC: 1.13556 (Simulation time: 0 hr 29 min 26 sec) 
select_counter is 1023
Heartbeat CPU 0 instructions: 66000002 cycles: 53958748 heartbeat IPC: 1.13805 cumulative IPC: 1.1356 (Simulation time: 0 hr 29 min 54 sec) 
select_counter is 1022
Heartbeat CPU 0 instructions: 67000000 cycles: 54825162 heartbeat IPC: 1.15418 cumulative IPC: 1.13592 (Simulation time: 0 hr 30 min 19 sec) 
select_counter is 1023
Heartbeat CPU 0 instructions: 68000000 cycles: 55707773 heartbeat IPC: 1.133 cumulative IPC: 1.13587 (Simulation time: 0 hr 30 min 48 sec) 
select_counter is 1022
Heartbeat CPU 0 instructions: 69000000 cycles: 56579509 heartbeat IPC: 1.14714 cumulative IPC: 1.13606 (Simulation time: 0 hr 31 min 13 sec) 
select_counter is 1023
Heartbeat CPU 0 instructions: 70000003 cycles: 57446551 heartbeat IPC: 1.15335 cumulative IPC: 1.13634 (Simulation time: 0 hr 31 min 42 sec) 
select_counter is 1023
Heartbeat CPU 0 instructions: 71000003 cycles: 58326983 heartbeat IPC: 1.13581 cumulative IPC: 1.13633 (Simulation time: 0 hr 32 min 10 sec) 
select_counter is 1023
Heartbeat CPU 0 instructions: 72000000 cycles: 59194397 heartbeat IPC: 1.15285 cumulative IPC: 1.1366 (Simulation time: 0 hr 32 min 38 sec) 
select_counter is 1022
Heartbeat CPU 0 instructions: 73000002 cycles: 60080920 heartbeat IPC: 1.128 cumulative IPC: 1.13646 (Simulation time: 0 hr 33 min 3 sec) 
select_counter is 1022
Heartbeat CPU 0 instructions: 74000003 cycles: 60949399 heartbeat IPC: 1.15144 cumulative IPC: 1.13669 (Simulation time: 0 hr 33 min 28 sec) 
select_counter is 1022
Heartbeat CPU 0 instructions: 75000003 cycles: 61829158 heartbeat IPC: 1.13667 cumulative IPC: 1.13669 (Simulation time: 0 hr 33 min 51 sec) 
select_counter is 1022
Heartbeat CPU 0 instructions: 76000000 cycles: 62696852 heartbeat IPC: 1.15248 cumulative IPC: 1.13693 (Simulation time: 0 hr 34 min 19 sec) 
select_counter is 1019
Heartbeat CPU 0 instructions: 77000003 cycles: 63579843 heartbeat IPC: 1.13252 cumulative IPC: 1.13686 (Simulation time: 0 hr 34 min 47 sec) 
select_counter is 1020
Heartbeat CPU 0 instructions: 78000001 cycles: 64451547 heartbeat IPC: 1.14718 cumulative IPC: 1.13701 (Simulation time: 0 hr 35 min 17 sec) 
select_counter is 1021
Heartbeat CPU 0 instructions: 79000000 cycles: 65333357 heartbeat IPC: 1.13403 cumulative IPC: 1.13697 (Simulation time: 0 hr 35 min 46 sec) 
select_counter is 1020
Heartbeat CPU 0 instructions: 80000000 cycles: 66200097 heartbeat IPC: 1.15375 cumulative IPC: 1.1372 (Simulation time: 0 hr 36 min 14 sec) 
select_counter is 1023
Heartbeat CPU 0 instructions: 81000003 cycles: 67081698 heartbeat IPC: 1.1343 cumulative IPC: 1.13716 (Simulation time: 0 hr 36 min 40 sec) 
select_counter is 1023
Heartbeat CPU 0 instructions: 82000001 cycles: 67954554 heartbeat IPC: 1.14566 cumulative IPC: 1.13728 (Simulation time: 0 hr 37 min 4 sec) 
select_counter is 1023
Heartbeat CPU 0 instructions: 83000002 cycles: 68821518 heartbeat IPC: 1.15345 cumulative IPC: 1.1375 (Simulation time: 0 hr 37 min 27 sec) 
select_counter is 1023
Heartbeat CPU 0 instructions: 84000000 cycles: 69700434 heartbeat IPC: 1.13776 cumulative IPC: 1.1375 (Simulation time: 0 hr 37 min 52 sec) 
select_counter is 1023
Heartbeat CPU 0 instructions: 85000001 cycles: 70567361 heartbeat IPC: 1.1535 cumulative IPC: 1.13771 (Simulation time: 0 hr 38 min 21 sec) 
select_counter is 1023
Heartbeat CPU 0 instructions: 86000001 cycles: 71446971 heartbeat IPC: 1.13687 cumulative IPC: 1.1377 (Simulation time: 0 hr 38 min 48 sec) 
select_counter is 1023
Heartbeat CPU 0 instructions: 87000001 cycles: 72318385 heartbeat IPC: 1.14756 cumulative IPC: 1.13783 (Simulation time: 0 hr 39 min 11 sec) 
select_counter is 1021
Heartbeat CPU 0 instructions: 88000000 cycles: 73197047 heartbeat IPC: 1.13809 cumulative IPC: 1.13783 (Simulation time: 0 hr 39 min 36 sec) 
select_counter is 1020
Heartbeat CPU 0 instructions: 89000003 cycles: 74064289 heartbeat IPC: 1.15308 cumulative IPC: 1.13802 (Simulation time: 0 hr 40 min 0 sec) 
select_counter is 1021
Heartbeat CPU 0 instructions: 90000001 cycles: 74943988 heartbeat IPC: 1.13675 cumulative IPC: 1.13801 (Simulation time: 0 hr 40 min 24 sec) 
select_counter is 1022
Heartbeat CPU 0 instructions: 91000000 cycles: 75817549 heartbeat IPC: 1.14474 cumulative IPC: 1.13809 (Simulation time: 0 hr 40 min 49 sec) 
select_counter is 1023
Heartbeat CPU 0 instructions: 92000000 cycles: 76697286 heartbeat IPC: 1.1367 cumulative IPC: 1.13807 (Simulation time: 0 hr 41 min 14 sec) 
select_counter is 1023
Heartbeat CPU 0 instructions: 93000001 cycles: 77564236 heartbeat IPC: 1.15347 cumulative IPC: 1.13826 (Simulation time: 0 hr 41 min 35 sec) 
select_counter is 1023
Heartbeat CPU 0 instructions: 94000003 cycles: 78443970 heartbeat IPC: 1.13671 cumulative IPC: 1.13824 (Simulation time: 0 hr 41 min 56 sec) 
select_counter is 1023
Heartbeat CPU 0 instructions: 95000003 cycles: 79310762 heartbeat IPC: 1.15368 cumulative IPC: 1.13842 (Simulation time: 0 hr 42 min 19 sec) 
select_counter is 1023
Heartbeat CPU 0 instructions: 96000000 cycles: 80186198 heartbeat IPC: 1.14228 cumulative IPC: 1.13846 (Simulation time: 0 hr 42 min 40 sec) 
select_counter is 1023
Heartbeat CPU 0 instructions: 97000000 cycles: 81067480 heartbeat IPC: 1.13471 cumulative IPC: 1.13842 (Simulation time: 0 hr 43 min 0 sec) 
select_counter is 1023
Heartbeat CPU 0 instructions: 98000001 cycles: 81935532 heartbeat IPC: 1.15201 cumulative IPC: 1.13857 (Simulation time: 0 hr 43 min 17 sec) 
select_counter is 1022
Heartbeat CPU 0 instructions: 99000001 cycles: 82816182 heartbeat IPC: 1.13552 cumulative IPC: 1.13854 (Simulation time: 0 hr 43 min 38 sec) 
select_counter is 1022
Heartbeat CPU 0 instructions: 100000000 cycles: 83691017 heartbeat IPC: 1.14307 cumulative IPC: 1.13859 (Simulation time: 0 hr 43 min 56 sec) 
select_counter is 1019
Heartbeat CPU 0 instructions: 101000002 cycles: 84571577 heartbeat IPC: 1.13564 cumulative IPC: 1.13855 (Simulation time: 0 hr 44 min 14 sec) 
select_counter is 1023
Heartbeat CPU 0 instructions: 102000003 cycles: 85436669 heartbeat IPC: 1.15595 cumulative IPC: 1.13874 (Simulation time: 0 hr 44 min 32 sec) 
select_counter is 1023
Heartbeat CPU 0 instructions: 103000001 cycles: 86315161 heartbeat IPC: 1.13831 cumulative IPC: 1.13874 (Simulation time: 0 hr 44 min 50 sec) 
select_counter is 1023
Heartbeat CPU 0 instructions: 104000000 cycles: 87181219 heartbeat IPC: 1.15466 cumulative IPC: 1.1389 (Simulation time: 0 hr 45 min 7 sec) 
select_counter is 1023
Heartbeat CPU 0 instructions: 105000003 cycles: 88064804 heartbeat IPC: 1.13176 cumulative IPC: 1.13883 (Simulation time: 0 hr 45 min 23 sec) 
select_counter is 1022
Heartbeat CPU 0 instructions: 106000002 cycles: 88931996 heartbeat IPC: 1.15315 cumulative IPC: 1.13897 (Simulation time: 0 hr 45 min 39 sec) 
select_counter is 1023
Heartbeat CPU 0 instructions: 107000000 cycles: 89811009 heartbeat IPC: 1.13764 cumulative IPC: 1.13896 (Simulation time: 0 hr 45 min 55 sec) 
select_counter is 1023
Heartbeat CPU 0 instructions: 108000000 cycles: 90678361 heartbeat IPC: 1.15293 cumulative IPC: 1.1391 (Simulation time: 0 hr 46 min 12 sec) 
select_counter is 1023
Heartbeat CPU 0 instructions: 109000002 cycles: 91550143 heartbeat IPC: 1.14708 cumulative IPC: 1.13918 (Simulation time: 0 hr 46 min 31 sec) 
select_counter is 1023
Heartbeat CPU 0 instructions: 110000000 cycles: 92431931 heartbeat IPC: 1.13406 cumulative IPC: 1.13913 (Simulation time: 0 hr 46 min 47 sec) 
select_counter is 1023
Finished CPU 0 instructions: 100000003 cycles: 87786325 cummulative IPC: 1.13913 (Simulation time: 0 hr 46 min 47 sec) 

ChampSim completed all CPUs

Region of Interest Statistics

CPU 0 cummulative IPC: 1.13913 instructions: 100000003 cycles: 87786325
LLC TOTAL     ACCESS:     789884  HIT:     175966  MISS:     613918
LLC LOAD      ACCESS:     401403  HIT:      91543  MISS:     309860
LLC RFO       ACCESS:     194176  HIT:        908  MISS:     193268
LLC PREFETCH  ACCESS:          0  HIT:          0  MISS:          0
LLC WRITEBACK ACCESS:     194305  HIT:      83515  MISS:     110790
Ship samples: 
26, 57, 81, 97, 144, 160, 213, 241, 263, 293, 349, 355, 407, 434, 464, 488, 521, 549, 597, 615, 666, 684, 725, 754, 797, 813, 842, 875, 900, 943, 973, 1001, 1036, 1069, 1096, 1144, 1176, 1196, 1243, 1260, 1311, 1330, 1355, 1386, 1435, 1444, 1488, 1535, 1563, 1598, 1601, 1637, 1690, 1702, 1744, 1774, 1805, 1848, 1886, 1895, 1947, 1953, 2008, 2024, 
Lime duel samples: 
29, 109, 220, 298, 401, 496, 598, 675, 799, 881, 980, 1070, 1154, 1278, 1353, 1465, 1564, 1654, 1749, 1824, 1945, 
Lime samples: 
29, 109, 220, 298, 401, 496, 598, 675, 799, 881, 980, 1070, 1154, 1278, 1353, 1465, 1564, 1654, 1749, 1824, 1945, 
Insertion Distribution: 
	LOAD 2899 0 0 0 0 0 953 6711 
	RFO 0 0 0 0 0 0 362 6071 
	PREF 0 0 0 0 0 0 0 0 
	WRITEBACK 0 0 0 0 0 0 0 5515 
Total Prefetch Downgrades: 0
