
*** ChampSim Multicore Out-of-Order Simulator ***

Warmup Instructions: 10000000
Simulation Instructions: 100000000
Configuration: 1
Number of CPUs: 1
LLC sets: 2048
LLC ways: 16
Off-chip DRAM Channels: 1 Width: 64-bit Data Rate: 1600 MT/s

CPU 0 runs /datasets/cs240c-wi22-a00-public/data/Assignment2-gz/bzip2_259B.trace.gz
Heartbeat CPU 0 instructions: 1000002 cycles: 428954 heartbeat IPC: 2.33126 cumulative IPC: 2.33126 (Simulation time: 0 hr 0 min 25 sec) 
select_counter is 534
Heartbeat CPU 0 instructions: 2000003 cycles: 861405 heartbeat IPC: 2.3124 cumulative IPC: 2.32179 (Simulation time: 0 hr 0 min 53 sec) 
select_counter is 562
Heartbeat CPU 0 instructions: 3000001 cycles: 1287146 heartbeat IPC: 2.34884 cumulative IPC: 2.33074 (Simulation time: 0 hr 1 min 20 sec) 
select_counter is 591
Heartbeat CPU 0 instructions: 4000000 cycles: 1685678 heartbeat IPC: 2.50921 cumulative IPC: 2.37293 (Simulation time: 0 hr 1 min 43 sec) 
select_counter is 684
Heartbeat CPU 0 instructions: 5000001 cycles: 2104126 heartbeat IPC: 2.38979 cumulative IPC: 2.37628 (Simulation time: 0 hr 2 min 7 sec) 
select_counter is 716
Heartbeat CPU 0 instructions: 6000001 cycles: 2533723 heartbeat IPC: 2.32776 cumulative IPC: 2.36806 (Simulation time: 0 hr 2 min 33 sec) 
select_counter is 725
Heartbeat CPU 0 instructions: 7000003 cycles: 2962777 heartbeat IPC: 2.33071 cumulative IPC: 2.36265 (Simulation time: 0 hr 3 min 0 sec) 
select_counter is 733
Heartbeat CPU 0 instructions: 8000000 cycles: 3392826 heartbeat IPC: 2.32531 cumulative IPC: 2.35792 (Simulation time: 0 hr 3 min 24 sec) 
select_counter is 744
Heartbeat CPU 0 instructions: 9000000 cycles: 3820958 heartbeat IPC: 2.33573 cumulative IPC: 2.35543 (Simulation time: 0 hr 3 min 47 sec) 
select_counter is 755
Heartbeat CPU 0 instructions: 10000002 cycles: 4195054 heartbeat IPC: 2.67312 cumulative IPC: 2.38376 (Simulation time: 0 hr 4 min 7 sec) 
select_counter is 864

Warmup complete CPU 0 instructions: 10000002 cycles: 4195054 (Simulation time: 0 hr 4 min 7 sec) 

Heartbeat CPU 0 instructions: 11000002 cycles: 5176809 heartbeat IPC: 1.01858 cumulative IPC: 1.01858 (Simulation time: 0 hr 4 min 30 sec) 
select_counter is 1023
Heartbeat CPU 0 instructions: 12000000 cycles: 6827798 heartbeat IPC: 0.605696 cumulative IPC: 0.759663 (Simulation time: 0 hr 5 min 1 sec) 
select_counter is 1023
Heartbeat CPU 0 instructions: 13000002 cycles: 8370189 heartbeat IPC: 0.648345 cumulative IPC: 0.71854 (Simulation time: 0 hr 5 min 29 sec) 
select_counter is 1023
Heartbeat CPU 0 instructions: 14000002 cycles: 9709921 heartbeat IPC: 0.746418 cumulative IPC: 0.725312 (Simulation time: 0 hr 5 min 57 sec) 
select_counter is 1023
Heartbeat CPU 0 instructions: 15000002 cycles: 11126841 heartbeat IPC: 0.705756 cumulative IPC: 0.721315 (Simulation time: 0 hr 6 min 24 sec) 
select_counter is 1023
Heartbeat CPU 0 instructions: 16000000 cycles: 12593455 heartbeat IPC: 0.681841 cumulative IPC: 0.714421 (Simulation time: 0 hr 6 min 55 sec) 
select_counter is 1022
Heartbeat CPU 0 instructions: 17000002 cycles: 14122786 heartbeat IPC: 0.653882 cumulative IPC: 0.705096 (Simulation time: 0 hr 7 min 24 sec) 
select_counter is 1023
Heartbeat CPU 0 instructions: 18000001 cycles: 15482359 heartbeat IPC: 0.735524 cumulative IPC: 0.708761 (Simulation time: 0 hr 7 min 50 sec) 
select_counter is 1023
Heartbeat CPU 0 instructions: 19000003 cycles: 16665627 heartbeat IPC: 0.845119 cumulative IPC: 0.721699 (Simulation time: 0 hr 8 min 17 sec) 
select_counter is 1023
Heartbeat CPU 0 instructions: 20000000 cycles: 17848285 heartbeat IPC: 0.84555 cumulative IPC: 0.732427 (Simulation time: 0 hr 8 min 41 sec) 
select_counter is 1023
Heartbeat CPU 0 instructions: 21000000 cycles: 18970042 heartbeat IPC: 0.891459 cumulative IPC: 0.744501 (Simulation time: 0 hr 9 min 5 sec) 
select_counter is 1023
Heartbeat CPU 0 instructions: 22000001 cycles: 20098346 heartbeat IPC: 0.886287 cumulative IPC: 0.754561 (Simulation time: 0 hr 9 min 33 sec) 
select_counter is 1023
Heartbeat CPU 0 instructions: 23000002 cycles: 21260509 heartbeat IPC: 0.860465 cumulative IPC: 0.761773 (Simulation time: 0 hr 9 min 54 sec) 
select_counter is 1023
Heartbeat CPU 0 instructions: 24000000 cycles: 22360644 heartbeat IPC: 0.908978 cumulative IPC: 0.770688 (Simulation time: 0 hr 10 min 16 sec) 
select_counter is 1023
Heartbeat CPU 0 instructions: 25000000 cycles: 23446374 heartbeat IPC: 0.921039 cumulative IPC: 0.779167 (Simulation time: 0 hr 10 min 39 sec) 
select_counter is 1023
Heartbeat CPU 0 instructions: 26000000 cycles: 24619567 heartbeat IPC: 0.852375 cumulative IPC: 0.783372 (Simulation time: 0 hr 11 min 3 sec) 
select_counter is 1020
Heartbeat CPU 0 instructions: 27000003 cycles: 25792564 heartbeat IPC: 0.85252 cumulative IPC: 0.787128 (Simulation time: 0 hr 11 min 28 sec) 
select_counter is 1022
Heartbeat CPU 0 instructions: 28000000 cycles: 26846204 heartbeat IPC: 0.949088 cumulative IPC: 0.794662 (Simulation time: 0 hr 11 min 51 sec) 
select_counter is 1022
Heartbeat CPU 0 instructions: 29000000 cycles: 27868985 heartbeat IPC: 0.977726 cumulative IPC: 0.80257 (Simulation time: 0 hr 12 min 16 sec) 
select_counter is 1023
Heartbeat CPU 0 instructions: 30000001 cycles: 29001191 heartbeat IPC: 0.883232 cumulative IPC: 0.806252 (Simulation time: 0 hr 12 min 38 sec) 
select_counter is 1022
Heartbeat CPU 0 instructions: 31000002 cycles: 30106289 heartbeat IPC: 0.904898 cumulative IPC: 0.810459 (Simulation time: 0 hr 13 min 1 sec) 
select_counter is 1021
Heartbeat CPU 0 instructions: 32000000 cycles: 31256032 heartbeat IPC: 0.869758 cumulative IPC: 0.812979 (Simulation time: 0 hr 13 min 24 sec) 
select_counter is 1022
Heartbeat CPU 0 instructions: 33000002 cycles: 32678893 heartbeat IPC: 0.702811 cumulative IPC: 0.807475 (Simulation time: 0 hr 13 min 49 sec) 
select_counter is 1021
Heartbeat CPU 0 instructions: 34000003 cycles: 34239449 heartbeat IPC: 0.640798 cumulative IPC: 0.798818 (Simulation time: 0 hr 14 min 16 sec) 
select_counter is 1022
Heartbeat CPU 0 instructions: 35000001 cycles: 35504672 heartbeat IPC: 0.790373 cumulative IPC: 0.798477 (Simulation time: 0 hr 14 min 42 sec) 
select_counter is 1023
Heartbeat CPU 0 instructions: 36000000 cycles: 36780178 heartbeat IPC: 0.784002 cumulative IPC: 0.79791 (Simulation time: 0 hr 15 min 4 sec) 
select_counter is 1023
Heartbeat CPU 0 instructions: 37000002 cycles: 37824276 heartbeat IPC: 0.957766 cumulative IPC: 0.802873 (Simulation time: 0 hr 15 min 25 sec) 
select_counter is 1023
Heartbeat CPU 0 instructions: 38000003 cycles: 38950681 heartbeat IPC: 0.887781 cumulative IPC: 0.805625 (Simulation time: 0 hr 15 min 50 sec) 
select_counter is 1023
Heartbeat CPU 0 instructions: 39000001 cycles: 40095026 heartbeat IPC: 0.873861 cumulative IPC: 0.8078 (Simulation time: 0 hr 16 min 11 sec) 
select_counter is 1021
Heartbeat CPU 0 instructions: 40000000 cycles: 41176176 heartbeat IPC: 0.92494 cumulative IPC: 0.811225 (Simulation time: 0 hr 16 min 31 sec) 
select_counter is 1021
Heartbeat CPU 0 instructions: 41000001 cycles: 42367513 heartbeat IPC: 0.839394 cumulative IPC: 0.812104 (Simulation time: 0 hr 16 min 50 sec) 
select_counter is 1022
Heartbeat CPU 0 instructions: 42000000 cycles: 43586196 heartbeat IPC: 0.820557 cumulative IPC: 0.812365 (Simulation time: 0 hr 17 min 9 sec) 
select_counter is 1022
Heartbeat CPU 0 instructions: 43000003 cycles: 44803274 heartbeat IPC: 0.821643 cumulative IPC: 0.812643 (Simulation time: 0 hr 17 min 29 sec) 
select_counter is 1023
Heartbeat CPU 0 instructions: 44000000 cycles: 46027487 heartbeat IPC: 0.816849 cumulative IPC: 0.812766 (Simulation time: 0 hr 17 min 49 sec) 
select_counter is 1022
Heartbeat CPU 0 instructions: 45000000 cycles: 47250028 heartbeat IPC: 0.817968 cumulative IPC: 0.812914 (Simulation time: 0 hr 18 min 8 sec) 
select_counter is 1023
Heartbeat CPU 0 instructions: 46000002 cycles: 48499835 heartbeat IPC: 0.800125 cumulative IPC: 0.812553 (Simulation time: 0 hr 18 min 28 sec) 
select_counter is 1022
Heartbeat CPU 0 instructions: 47000000 cycles: 49740753 heartbeat IPC: 0.805853 cumulative IPC: 0.812371 (Simulation time: 0 hr 18 min 47 sec) 
select_counter is 1022
Heartbeat CPU 0 instructions: 48000000 cycles: 50979188 heartbeat IPC: 0.807471 cumulative IPC: 0.812241 (Simulation time: 0 hr 19 min 6 sec) 
select_counter is 1020
Heartbeat CPU 0 instructions: 49000003 cycles: 52259490 heartbeat IPC: 0.781068 cumulative IPC: 0.811411 (Simulation time: 0 hr 19 min 24 sec) 
select_counter is 1021
Heartbeat CPU 0 instructions: 50000001 cycles: 53298960 heartbeat IPC: 0.962027 cumulative IPC: 0.814599 (Simulation time: 0 hr 19 min 43 sec) 
select_counter is 1022
Heartbeat CPU 0 instructions: 51000002 cycles: 54473014 heartbeat IPC: 0.85175 cumulative IPC: 0.815467 (Simulation time: 0 hr 20 min 5 sec) 
select_counter is 1020
Heartbeat CPU 0 instructions: 52000000 cycles: 55591549 heartbeat IPC: 0.894025 cumulative IPC: 0.817176 (Simulation time: 0 hr 20 min 25 sec) 
select_counter is 1021
Heartbeat CPU 0 instructions: 53000001 cycles: 56797594 heartbeat IPC: 0.829157 cumulative IPC: 0.817451 (Simulation time: 0 hr 20 min 52 sec) 
select_counter is 1023
Heartbeat CPU 0 instructions: 54000000 cycles: 58033236 heartbeat IPC: 0.809295 cumulative IPC: 0.817264 (Simulation time: 0 hr 21 min 9 sec) 
select_counter is 1023
Heartbeat CPU 0 instructions: 55000000 cycles: 59185717 heartbeat IPC: 0.867693 cumulative IPC: 0.818321 (Simulation time: 0 hr 21 min 28 sec) 
select_counter is 1023
Heartbeat CPU 0 instructions: 56000000 cycles: 60421451 heartbeat IPC: 0.809236 cumulative IPC: 0.818121 (Simulation time: 0 hr 21 min 50 sec) 
select_counter is 1023
Heartbeat CPU 0 instructions: 57000000 cycles: 61643086 heartbeat IPC: 0.818575 cumulative IPC: 0.818131 (Simulation time: 0 hr 22 min 8 sec) 
select_counter is 1023
Heartbeat CPU 0 instructions: 58000002 cycles: 62685858 heartbeat IPC: 0.958984 cumulative IPC: 0.820642 (Simulation time: 0 hr 22 min 25 sec) 
select_counter is 1023
Heartbeat CPU 0 instructions: 59000000 cycles: 63788514 heartbeat IPC: 0.906899 cumulative IPC: 0.822238 (Simulation time: 0 hr 22 min 45 sec) 
select_counter is 1023
Heartbeat CPU 0 instructions: 60000000 cycles: 64977845 heartbeat IPC: 0.840809 cumulative IPC: 0.822601 (Simulation time: 0 hr 23 min 2 sec) 
select_counter is 1023
Heartbeat CPU 0 instructions: 61000000 cycles: 66122627 heartbeat IPC: 0.873529 cumulative IPC: 0.823543 (Simulation time: 0 hr 23 min 21 sec) 
select_counter is 1023
Heartbeat CPU 0 instructions: 62000002 cycles: 66976565 heartbeat IPC: 1.17105 cumulative IPC: 0.828269 (Simulation time: 0 hr 23 min 39 sec) 
select_counter is 1023
Heartbeat CPU 0 instructions: 63000001 cycles: 67969326 heartbeat IPC: 1.00729 cumulative IPC: 0.831056 (Simulation time: 0 hr 23 min 59 sec) 
select_counter is 1019
Heartbeat CPU 0 instructions: 64000000 cycles: 69308523 heartbeat IPC: 0.746715 cumulative IPC: 0.829321 (Simulation time: 0 hr 24 min 23 sec) 
select_counter is 1017
Heartbeat CPU 0 instructions: 65000003 cycles: 70606236 heartbeat IPC: 0.770589 cumulative IPC: 0.828174 (Simulation time: 0 hr 24 min 46 sec) 
select_counter is 1023
Heartbeat CPU 0 instructions: 66000003 cycles: 71994150 heartbeat IPC: 0.720506 cumulative IPC: 0.82597 (Simulation time: 0 hr 25 min 9 sec) 
select_counter is 1023
Heartbeat CPU 0 instructions: 67000003 cycles: 73466661 heartbeat IPC: 0.679112 cumulative IPC: 0.822848 (Simulation time: 0 hr 25 min 31 sec) 
select_counter is 1023
Heartbeat CPU 0 instructions: 68000000 cycles: 75066455 heartbeat IPC: 0.625079 cumulative IPC: 0.818384 (Simulation time: 0 hr 25 min 54 sec) 
select_counter is 1022
Heartbeat CPU 0 instructions: 69000003 cycles: 76507231 heartbeat IPC: 0.694072 cumulative IPC: 0.815907 (Simulation time: 0 hr 26 min 18 sec) 
select_counter is 1023
Heartbeat CPU 0 instructions: 70000003 cycles: 77990080 heartbeat IPC: 0.674378 cumulative IPC: 0.813063 (Simulation time: 0 hr 26 min 42 sec) 
select_counter is 1023
Heartbeat CPU 0 instructions: 71000000 cycles: 79505054 heartbeat IPC: 0.660075 cumulative IPC: 0.809985 (Simulation time: 0 hr 27 min 4 sec) 
select_counter is 1023
Heartbeat CPU 0 instructions: 72000000 cycles: 80950772 heartbeat IPC: 0.691698 cumulative IPC: 0.807757 (Simulation time: 0 hr 27 min 25 sec) 
select_counter is 1022
Heartbeat CPU 0 instructions: 73000003 cycles: 82511233 heartbeat IPC: 0.640838 cumulative IPC: 0.804431 (Simulation time: 0 hr 27 min 47 sec) 
select_counter is 1023
Heartbeat CPU 0 instructions: 74000001 cycles: 84007519 heartbeat IPC: 0.66832 cumulative IPC: 0.80188 (Simulation time: 0 hr 28 min 11 sec) 
select_counter is 1023
Heartbeat CPU 0 instructions: 75000000 cycles: 85382420 heartbeat IPC: 0.727324 cumulative IPC: 0.800617 (Simulation time: 0 hr 28 min 32 sec) 
select_counter is 1023
Heartbeat CPU 0 instructions: 76000000 cycles: 86696801 heartbeat IPC: 0.760814 cumulative IPC: 0.799983 (Simulation time: 0 hr 28 min 54 sec) 
select_counter is 1023
Heartbeat CPU 0 instructions: 77000002 cycles: 87878250 heartbeat IPC: 0.84642 cumulative IPC: 0.800639 (Simulation time: 0 hr 29 min 14 sec) 
select_counter is 1023
Heartbeat CPU 0 instructions: 78000000 cycles: 89091827 heartbeat IPC: 0.824009 cumulative IPC: 0.800973 (Simulation time: 0 hr 29 min 33 sec) 
select_counter is 1023
Heartbeat CPU 0 instructions: 79000003 cycles: 90508301 heartbeat IPC: 0.70598 cumulative IPC: 0.799414 (Simulation time: 0 hr 29 min 55 sec) 
select_counter is 1023
Heartbeat CPU 0 instructions: 80000000 cycles: 92061478 heartbeat IPC: 0.64384 cumulative IPC: 0.796664 (Simulation time: 0 hr 30 min 17 sec) 
select_counter is 1022
Heartbeat CPU 0 instructions: 81000001 cycles: 93483404 heartbeat IPC: 0.703272 cumulative IPC: 0.795177 (Simulation time: 0 hr 30 min 38 sec) 
select_counter is 1021
Heartbeat CPU 0 instructions: 82000000 cycles: 94829910 heartbeat IPC: 0.742662 cumulative IPC: 0.794396 (Simulation time: 0 hr 30 min 59 sec) 
select_counter is 1023
Heartbeat CPU 0 instructions: 83000002 cycles: 96091836 heartbeat IPC: 0.792441 cumulative IPC: 0.79437 (Simulation time: 0 hr 31 min 20 sec) 
select_counter is 1023
Heartbeat CPU 0 instructions: 84000000 cycles: 97250212 heartbeat IPC: 0.863276 cumulative IPC: 0.795227 (Simulation time: 0 hr 31 min 40 sec) 
select_counter is 1022
Heartbeat CPU 0 instructions: 85000003 cycles: 98432071 heartbeat IPC: 0.846127 cumulative IPC: 0.795866 (Simulation time: 0 hr 32 min 0 sec) 
select_counter is 1023
Heartbeat CPU 0 instructions: 86000001 cycles: 99768656 heartbeat IPC: 0.748174 cumulative IPC: 0.795199 (Simulation time: 0 hr 32 min 20 sec) 
select_counter is 1022
Heartbeat CPU 0 instructions: 87000002 cycles: 101116232 heartbeat IPC: 0.742074 cumulative IPC: 0.79446 (Simulation time: 0 hr 32 min 39 sec) 
select_counter is 1022
Heartbeat CPU 0 instructions: 88000000 cycles: 102305215 heartbeat IPC: 0.841053 cumulative IPC: 0.795025 (Simulation time: 0 hr 32 min 58 sec) 
select_counter is 1023
Heartbeat CPU 0 instructions: 89000002 cycles: 103318070 heartbeat IPC: 0.98731 cumulative IPC: 0.796989 (Simulation time: 0 hr 33 min 16 sec) 
select_counter is 1023
Heartbeat CPU 0 instructions: 90000001 cycles: 104454566 heartbeat IPC: 0.879897 cumulative IPC: 0.797929 (Simulation time: 0 hr 33 min 34 sec) 
select_counter is 1022
Heartbeat CPU 0 instructions: 91000002 cycles: 105577815 heartbeat IPC: 0.890275 cumulative IPC: 0.798952 (Simulation time: 0 hr 33 min 51 sec) 
select_counter is 1020
Heartbeat CPU 0 instructions: 92000000 cycles: 106617622 heartbeat IPC: 0.961715 cumulative IPC: 0.800605 (Simulation time: 0 hr 34 min 9 sec) 
select_counter is 1023
Heartbeat CPU 0 instructions: 93000000 cycles: 107816966 heartbeat IPC: 0.833789 cumulative IPC: 0.800989 (Simulation time: 0 hr 34 min 26 sec) 
select_counter is 1022
Heartbeat CPU 0 instructions: 94000003 cycles: 108993575 heartbeat IPC: 0.849903 cumulative IPC: 0.801538 (Simulation time: 0 hr 34 min 44 sec) 
select_counter is 1022
Heartbeat CPU 0 instructions: 95000002 cycles: 110188143 heartbeat IPC: 0.837122 cumulative IPC: 0.801939 (Simulation time: 0 hr 35 min 1 sec) 
select_counter is 1023
Heartbeat CPU 0 instructions: 96000000 cycles: 111367432 heartbeat IPC: 0.847967 cumulative IPC: 0.802446 (Simulation time: 0 hr 35 min 18 sec) 
select_counter is 1023
Heartbeat CPU 0 instructions: 97000002 cycles: 112585059 heartbeat IPC: 0.821271 cumulative IPC: 0.802657 (Simulation time: 0 hr 35 min 35 sec) 
select_counter is 1023
Heartbeat CPU 0 instructions: 98000000 cycles: 113827475 heartbeat IPC: 0.804882 cumulative IPC: 0.802682 (Simulation time: 0 hr 35 min 52 sec) 
select_counter is 1023
Heartbeat CPU 0 instructions: 99000000 cycles: 115077409 heartbeat IPC: 0.800042 cumulative IPC: 0.802652 (Simulation time: 0 hr 36 min 11 sec) 
select_counter is 1023
Heartbeat CPU 0 instructions: 100000000 cycles: 116320139 heartbeat IPC: 0.80468 cumulative IPC: 0.802675 (Simulation time: 0 hr 36 min 28 sec) 
select_counter is 1022
Heartbeat CPU 0 instructions: 101000003 cycles: 117477930 heartbeat IPC: 0.863716 cumulative IPC: 0.803299 (Simulation time: 0 hr 36 min 45 sec) 
select_counter is 1023
Heartbeat CPU 0 instructions: 102000000 cycles: 118607375 heartbeat IPC: 0.885388 cumulative IPC: 0.804109 (Simulation time: 0 hr 37 min 1 sec) 
select_counter is 1023
Heartbeat CPU 0 instructions: 103000000 cycles: 119708933 heartbeat IPC: 0.907805 cumulative IPC: 0.805098 (Simulation time: 0 hr 37 min 17 sec) 
select_counter is 1023
Heartbeat CPU 0 instructions: 104000000 cycles: 120871939 heartbeat IPC: 0.859841 cumulative IPC: 0.805644 (Simulation time: 0 hr 37 min 33 sec) 
select_counter is 1023
Heartbeat CPU 0 instructions: 105000002 cycles: 122093682 heartbeat IPC: 0.818504 cumulative IPC: 0.805777 (Simulation time: 0 hr 37 min 49 sec) 
select_counter is 1021
Heartbeat CPU 0 instructions: 106000001 cycles: 123228006 heartbeat IPC: 0.881581 cumulative IPC: 0.806499 (Simulation time: 0 hr 38 min 6 sec) 
select_counter is 1022
Heartbeat CPU 0 instructions: 107000000 cycles: 124441086 heartbeat IPC: 0.824347 cumulative IPC: 0.806679 (Simulation time: 0 hr 38 min 23 sec) 
select_counter is 1023
Heartbeat CPU 0 instructions: 108000000 cycles: 125650298 heartbeat IPC: 0.826985 cumulative IPC: 0.806882 (Simulation time: 0 hr 38 min 41 sec) 
select_counter is 1022
Heartbeat CPU 0 instructions: 109000000 cycles: 126663024 heartbeat IPC: 0.987434 cumulative IPC: 0.808375 (Simulation time: 0 hr 38 min 58 sec) 
select_counter is 1023
Heartbeat CPU 0 instructions: 110000000 cycles: 127837551 heartbeat IPC: 0.851407 cumulative IPC: 0.808783 (Simulation time: 0 hr 39 min 14 sec) 
select_counter is 1023
Finished CPU 0 instructions: 100000002 cycles: 123642499 cummulative IPC: 0.808783 (Simulation time: 0 hr 39 min 14 sec) 

ChampSim completed all CPUs

Region of Interest Statistics

CPU 0 cummulative IPC: 0.808783 instructions: 100000002 cycles: 123642499
LLC TOTAL     ACCESS:     991023  HIT:     698484  MISS:     292539
LLC LOAD      ACCESS:     696691  HIT:     495800  MISS:     200891
LLC RFO       ACCESS:     102176  HIT:      49433  MISS:      52743
LLC PREFETCH  ACCESS:          0  HIT:          0  MISS:          0
LLC WRITEBACK ACCESS:     192156  HIT:     153251  MISS:      38905
Ship samples: 
18, 41, 64, 122, 145, 166, 216, 228, 275, 318, 331, 355, 408, 430, 473, 498, 541, 565, 593, 620, 645, 672, 725, 743, 792, 816, 855, 890, 899, 943, 962, 1018, 1030, 1067, 1090, 1130, 1172, 1192, 1221, 1253, 1309, 1319, 1347, 1395, 1414, 1448, 1473, 1505, 1559, 1581, 1600, 1644, 1686, 1697, 1730, 1771, 1807, 1839, 1865, 1918, 1939, 1975, 1992, 2044, 
Lime duel samples: 
6, 126, 196, 303, 407, 500, 603, 689, 772, 883, 988, 1077, 1171, 1261, 1360, 1456, 1544, 1656, 1755, 1843, 1935, 
Lime samples: 
6, 126, 196, 303, 407, 500, 603, 689, 772, 883, 988, 1077, 1171, 1261, 1360, 1456, 1544, 1656, 1755, 1843, 1935, 
Insertion Distribution: 
	LOAD 1058 0 0 0 0 0 1990 2888 
	RFO 314 0 0 0 0 0 865 1224 
	PREF 0 0 0 0 0 0 0 0 
	WRITEBACK 0 0 0 0 0 0 0 1121 
Total Prefetch Downgrades: 0
