
*** ChampSim Multicore Out-of-Order Simulator ***

Warmup Instructions: 10000000
Simulation Instructions: 100000000
Configuration: 1
Number of CPUs: 1
LLC sets: 2048
LLC ways: 16
Off-chip DRAM Channels: 1 Width: 64-bit Data Rate: 1600 MT/s

CPU 0 runs /datasets/cs240c-wi22-a00-public/data/Assignment2-gz/GemsFDTD_109B.trace.gz
Heartbeat CPU 0 instructions: 1000002 cycles: 577063 heartbeat IPC: 1.73292 cumulative IPC: 1.73292 (Simulation time: 0 hr 0 min 33 sec) 
select_counter is 1012
Heartbeat CPU 0 instructions: 2000003 cycles: 1154104 heartbeat IPC: 1.73298 cumulative IPC: 1.73295 (Simulation time: 0 hr 1 min 8 sec) 
select_counter is 1023
Heartbeat CPU 0 instructions: 3000000 cycles: 1730672 heartbeat IPC: 1.7344 cumulative IPC: 1.73343 (Simulation time: 0 hr 1 min 44 sec) 
select_counter is 1023
Heartbeat CPU 0 instructions: 4000000 cycles: 2307186 heartbeat IPC: 1.73456 cumulative IPC: 1.73371 (Simulation time: 0 hr 2 min 17 sec) 
select_counter is 1023
Heartbeat CPU 0 instructions: 5000000 cycles: 2884163 heartbeat IPC: 1.73317 cumulative IPC: 1.73361 (Simulation time: 0 hr 2 min 53 sec) 
select_counter is 1023
Heartbeat CPU 0 instructions: 6000002 cycles: 3461032 heartbeat IPC: 1.7335 cumulative IPC: 1.73359 (Simulation time: 0 hr 3 min 29 sec) 
select_counter is 1023
Heartbeat CPU 0 instructions: 7000001 cycles: 4038032 heartbeat IPC: 1.7331 cumulative IPC: 1.73352 (Simulation time: 0 hr 4 min 2 sec) 
select_counter is 1023
Heartbeat CPU 0 instructions: 8000000 cycles: 4614141 heartbeat IPC: 1.73578 cumulative IPC: 1.7338 (Simulation time: 0 hr 4 min 37 sec) 
select_counter is 1022
Heartbeat CPU 0 instructions: 9000002 cycles: 5190468 heartbeat IPC: 1.73513 cumulative IPC: 1.73395 (Simulation time: 0 hr 5 min 11 sec) 
select_counter is 1023
Heartbeat CPU 0 instructions: 10000001 cycles: 5766951 heartbeat IPC: 1.73465 cumulative IPC: 1.73402 (Simulation time: 0 hr 5 min 46 sec) 
select_counter is 1023

Warmup complete CPU 0 instructions: 10000001 cycles: 5766951 (Simulation time: 0 hr 5 min 46 sec) 

Heartbeat CPU 0 instructions: 11000001 cycles: 8291923 heartbeat IPC: 0.396044 cumulative IPC: 0.396044 (Simulation time: 0 hr 6 min 32 sec) 
select_counter is 1023
Heartbeat CPU 0 instructions: 12000000 cycles: 10793989 heartbeat IPC: 0.399669 cumulative IPC: 0.397848 (Simulation time: 0 hr 7 min 17 sec) 
select_counter is 1023
Heartbeat CPU 0 instructions: 13000001 cycles: 13385344 heartbeat IPC: 0.385899 cumulative IPC: 0.393784 (Simulation time: 0 hr 8 min 3 sec) 
select_counter is 1023
Heartbeat CPU 0 instructions: 14000001 cycles: 15903832 heartbeat IPC: 0.397064 cumulative IPC: 0.394599 (Simulation time: 0 hr 8 min 51 sec) 
select_counter is 1023
Heartbeat CPU 0 instructions: 15000000 cycles: 18419877 heartbeat IPC: 0.397449 cumulative IPC: 0.395165 (Simulation time: 0 hr 9 min 35 sec) 
select_counter is 1023
Heartbeat CPU 0 instructions: 16000000 cycles: 20941611 heartbeat IPC: 0.396553 cumulative IPC: 0.395396 (Simulation time: 0 hr 10 min 20 sec) 
select_counter is 1023
Heartbeat CPU 0 instructions: 17000000 cycles: 23493141 heartbeat IPC: 0.391922 cumulative IPC: 0.394896 (Simulation time: 0 hr 11 min 7 sec) 
select_counter is 1022
Heartbeat CPU 0 instructions: 18000001 cycles: 25997088 heartbeat IPC: 0.39937 cumulative IPC: 0.39545 (Simulation time: 0 hr 11 min 52 sec) 
select_counter is 1023
Heartbeat CPU 0 instructions: 19000001 cycles: 28530384 heartbeat IPC: 0.394743 cumulative IPC: 0.395371 (Simulation time: 0 hr 12 min 40 sec) 
select_counter is 1020
Heartbeat CPU 0 instructions: 20000000 cycles: 30476722 heartbeat IPC: 0.513785 cumulative IPC: 0.404698 (Simulation time: 0 hr 13 min 18 sec) 
select_counter is 1023
Heartbeat CPU 0 instructions: 21000001 cycles: 31849765 heartbeat IPC: 0.72831 cumulative IPC: 0.421734 (Simulation time: 0 hr 13 min 52 sec) 
select_counter is 1023
Heartbeat CPU 0 instructions: 22000001 cycles: 35303449 heartbeat IPC: 0.289546 cumulative IPC: 0.406277 (Simulation time: 0 hr 14 min 29 sec) 
select_counter is 1023
Heartbeat CPU 0 instructions: 23000001 cycles: 36611534 heartbeat IPC: 0.764476 cumulative IPC: 0.421468 (Simulation time: 0 hr 15 min 3 sec) 
select_counter is 1023
Heartbeat CPU 0 instructions: 24000000 cycles: 40088880 heartbeat IPC: 0.287575 cumulative IPC: 0.407902 (Simulation time: 0 hr 15 min 38 sec) 
select_counter is 1023
Heartbeat CPU 0 instructions: 25000003 cycles: 41369893 heartbeat IPC: 0.780635 cumulative IPC: 0.421314 (Simulation time: 0 hr 16 min 13 sec) 
select_counter is 1023
Heartbeat CPU 0 instructions: 26000000 cycles: 44870053 heartbeat IPC: 0.2857 cumulative IPC: 0.409175 (Simulation time: 0 hr 16 min 51 sec) 
select_counter is 1022
Heartbeat CPU 0 instructions: 27000000 cycles: 46124562 heartbeat IPC: 0.797125 cumulative IPC: 0.421234 (Simulation time: 0 hr 17 min 26 sec) 
select_counter is 1023
Heartbeat CPU 0 instructions: 28000000 cycles: 49602905 heartbeat IPC: 0.287493 cumulative IPC: 0.410622 (Simulation time: 0 hr 18 min 6 sec) 
select_counter is 1023
Heartbeat CPU 0 instructions: 29000000 cycles: 50861592 heartbeat IPC: 0.794479 cumulative IPC: 0.421336 (Simulation time: 0 hr 18 min 41 sec) 
select_counter is 1023
Heartbeat CPU 0 instructions: 30000003 cycles: 52573465 heartbeat IPC: 0.584157 cumulative IPC: 0.427291 (Simulation time: 0 hr 19 min 15 sec) 
select_counter is 1023
Heartbeat CPU 0 instructions: 31000002 cycles: 53788525 heartbeat IPC: 0.823004 cumulative IPC: 0.437303 (Simulation time: 0 hr 19 min 48 sec) 
select_counter is 1023
Heartbeat CPU 0 instructions: 32000000 cycles: 55346394 heartbeat IPC: 0.641901 cumulative IPC: 0.443732 (Simulation time: 0 hr 20 min 24 sec) 
select_counter is 1023
Heartbeat CPU 0 instructions: 33000003 cycles: 56565213 heartbeat IPC: 0.820469 cumulative IPC: 0.452771 (Simulation time: 0 hr 20 min 54 sec) 
select_counter is 1021
Heartbeat CPU 0 instructions: 34000002 cycles: 58065709 heartbeat IPC: 0.666446 cumulative IPC: 0.458902 (Simulation time: 0 hr 21 min 19 sec) 
select_counter is 1022
Heartbeat CPU 0 instructions: 35000003 cycles: 59343833 heartbeat IPC: 0.782398 cumulative IPC: 0.466619 (Simulation time: 0 hr 21 min 48 sec) 
select_counter is 1023
Heartbeat CPU 0 instructions: 36000000 cycles: 60891510 heartbeat IPC: 0.646128 cumulative IPC: 0.471659 (Simulation time: 0 hr 22 min 21 sec) 
select_counter is 1023
Heartbeat CPU 0 instructions: 37000000 cycles: 62239585 heartbeat IPC: 0.741799 cumulative IPC: 0.478108 (Simulation time: 0 hr 22 min 55 sec) 
select_counter is 1023
Heartbeat CPU 0 instructions: 38000001 cycles: 63587587 heartbeat IPC: 0.741839 cumulative IPC: 0.484256 (Simulation time: 0 hr 23 min 25 sec) 
select_counter is 1023
Heartbeat CPU 0 instructions: 39000000 cycles: 64935482 heartbeat IPC: 0.741897 cumulative IPC: 0.490125 (Simulation time: 0 hr 23 min 56 sec) 
select_counter is 1023
Heartbeat CPU 0 instructions: 40000000 cycles: 66283497 heartbeat IPC: 0.741831 cumulative IPC: 0.495732 (Simulation time: 0 hr 24 min 29 sec) 
select_counter is 1023
Heartbeat CPU 0 instructions: 41000000 cycles: 67717429 heartbeat IPC: 0.697383 cumulative IPC: 0.5004 (Simulation time: 0 hr 25 min 1 sec) 
select_counter is 1023
Heartbeat CPU 0 instructions: 42000000 cycles: 69065993 heartbeat IPC: 0.74153 cumulative IPC: 0.505537 (Simulation time: 0 hr 25 min 35 sec) 
select_counter is 1023
Heartbeat CPU 0 instructions: 43000002 cycles: 70414691 heartbeat IPC: 0.741457 cumulative IPC: 0.510459 (Simulation time: 0 hr 26 min 8 sec) 
select_counter is 1023
Heartbeat CPU 0 instructions: 44000000 cycles: 71763213 heartbeat IPC: 0.741551 cumulative IPC: 0.515181 (Simulation time: 0 hr 26 min 44 sec) 
select_counter is 1023
Heartbeat CPU 0 instructions: 45000001 cycles: 73111576 heartbeat IPC: 0.741641 cumulative IPC: 0.519715 (Simulation time: 0 hr 27 min 19 sec) 
select_counter is 1023
Heartbeat CPU 0 instructions: 46000002 cycles: 74663330 heartbeat IPC: 0.644433 cumulative IPC: 0.522524 (Simulation time: 0 hr 27 min 54 sec) 
select_counter is 1023
Heartbeat CPU 0 instructions: 47000001 cycles: 76095292 heartbeat IPC: 0.698342 cumulative IPC: 0.526104 (Simulation time: 0 hr 28 min 24 sec) 
select_counter is 1023
Heartbeat CPU 0 instructions: 48000000 cycles: 77656697 heartbeat IPC: 0.640448 cumulative IPC: 0.528587 (Simulation time: 0 hr 28 min 54 sec) 
select_counter is 1023
Heartbeat CPU 0 instructions: 49000003 cycles: 87486697 heartbeat IPC: 0.10173 cumulative IPC: 0.477241 (Simulation time: 0 hr 29 min 49 sec) 
select_counter is 1021
Heartbeat CPU 0 instructions: 50000000 cycles: 90877725 heartbeat IPC: 0.294895 cumulative IPC: 0.469976 (Simulation time: 0 hr 30 min 34 sec) 
select_counter is 1023
Heartbeat CPU 0 instructions: 51000003 cycles: 94408752 heartbeat IPC: 0.283205 cumulative IPC: 0.462536 (Simulation time: 0 hr 31 min 20 sec) 
select_counter is 1023
Heartbeat CPU 0 instructions: 52000000 cycles: 97920635 heartbeat IPC: 0.284747 cumulative IPC: 0.45576 (Simulation time: 0 hr 32 min 6 sec) 
select_counter is 1021
Heartbeat CPU 0 instructions: 53000001 cycles: 101096331 heartbeat IPC: 0.314892 cumulative IPC: 0.451068 (Simulation time: 0 hr 32 min 45 sec) 
select_counter is 1023
Heartbeat CPU 0 instructions: 54000000 cycles: 104231349 heartbeat IPC: 0.318977 cumulative IPC: 0.446862 (Simulation time: 0 hr 33 min 30 sec) 
select_counter is 1023
Heartbeat CPU 0 instructions: 55000002 cycles: 107390642 heartbeat IPC: 0.316527 cumulative IPC: 0.44281 (Simulation time: 0 hr 34 min 17 sec) 
select_counter is 1023
Heartbeat CPU 0 instructions: 56000000 cycles: 110517866 heartbeat IPC: 0.319772 cumulative IPC: 0.439137 (Simulation time: 0 hr 35 min 6 sec) 
select_counter is 1022
Heartbeat CPU 0 instructions: 57000003 cycles: 113707755 heartbeat IPC: 0.313491 cumulative IPC: 0.435424 (Simulation time: 0 hr 35 min 45 sec) 
select_counter is 1023
Heartbeat CPU 0 instructions: 58000002 cycles: 116808195 heartbeat IPC: 0.322535 cumulative IPC: 0.432272 (Simulation time: 0 hr 36 min 31 sec) 
select_counter is 1023
Heartbeat CPU 0 instructions: 59000001 cycles: 119933319 heartbeat IPC: 0.319987 cumulative IPC: 0.429198 (Simulation time: 0 hr 37 min 10 sec) 
select_counter is 1023
Heartbeat CPU 0 instructions: 60000000 cycles: 123037893 heartbeat IPC: 0.322105 cumulative IPC: 0.426363 (Simulation time: 0 hr 37 min 51 sec) 
select_counter is 1023
Heartbeat CPU 0 instructions: 61000001 cycles: 126039025 heartbeat IPC: 0.333208 cumulative IPC: 0.424039 (Simulation time: 0 hr 38 min 30 sec) 
select_counter is 1023
Heartbeat CPU 0 instructions: 62000003 cycles: 129078103 heartbeat IPC: 0.329048 cumulative IPC: 0.421697 (Simulation time: 0 hr 39 min 10 sec) 
select_counter is 1023
Heartbeat CPU 0 instructions: 63000001 cycles: 132111404 heartbeat IPC: 0.329673 cumulative IPC: 0.419488 (Simulation time: 0 hr 39 min 49 sec) 
select_counter is 1023
Heartbeat CPU 0 instructions: 64000000 cycles: 135188955 heartbeat IPC: 0.324933 cumulative IPC: 0.41724 (Simulation time: 0 hr 40 min 26 sec) 
select_counter is 1021
Heartbeat CPU 0 instructions: 65000003 cycles: 138310317 heartbeat IPC: 0.320374 cumulative IPC: 0.414959 (Simulation time: 0 hr 40 min 59 sec) 
select_counter is 1023
Heartbeat CPU 0 instructions: 66000002 cycles: 141403876 heartbeat IPC: 0.323252 cumulative IPC: 0.412867 (Simulation time: 0 hr 41 min 32 sec) 
select_counter is 1023
Heartbeat CPU 0 instructions: 67000000 cycles: 144484022 heartbeat IPC: 0.324659 cumulative IPC: 0.410908 (Simulation time: 0 hr 42 min 6 sec) 
select_counter is 1023
Heartbeat CPU 0 instructions: 68000000 cycles: 147570232 heartbeat IPC: 0.324022 cumulative IPC: 0.409017 (Simulation time: 0 hr 42 min 36 sec) 
select_counter is 1023
Heartbeat CPU 0 instructions: 69000000 cycles: 150667083 heartbeat IPC: 0.322909 cumulative IPC: 0.407177 (Simulation time: 0 hr 43 min 9 sec) 
select_counter is 1023
Heartbeat CPU 0 instructions: 70000000 cycles: 153688242 heartbeat IPC: 0.330999 cumulative IPC: 0.405621 (Simulation time: 0 hr 43 min 38 sec) 
select_counter is 1023
Heartbeat CPU 0 instructions: 71000000 cycles: 156749405 heartbeat IPC: 0.326673 cumulative IPC: 0.40402 (Simulation time: 0 hr 44 min 8 sec) 
select_counter is 1020
Heartbeat CPU 0 instructions: 72000000 cycles: 159775007 heartbeat IPC: 0.330513 cumulative IPC: 0.402576 (Simulation time: 0 hr 44 min 38 sec) 
select_counter is 1023
Heartbeat CPU 0 instructions: 73000002 cycles: 162851251 heartbeat IPC: 0.325072 cumulative IPC: 0.401059 (Simulation time: 0 hr 45 min 4 sec) 
select_counter is 1022
Heartbeat CPU 0 instructions: 74000000 cycles: 165915604 heartbeat IPC: 0.326333 cumulative IPC: 0.399629 (Simulation time: 0 hr 45 min 31 sec) 
select_counter is 1023
Heartbeat CPU 0 instructions: 75000002 cycles: 169012434 heartbeat IPC: 0.322912 cumulative IPC: 0.398173 (Simulation time: 0 hr 45 min 55 sec) 
select_counter is 1023
Heartbeat CPU 0 instructions: 76000000 cycles: 172068345 heartbeat IPC: 0.327234 cumulative IPC: 0.39687 (Simulation time: 0 hr 46 min 22 sec) 
select_counter is 1023
Heartbeat CPU 0 instructions: 77000003 cycles: 175210084 heartbeat IPC: 0.318296 cumulative IPC: 0.395413 (Simulation time: 0 hr 46 min 48 sec) 
select_counter is 1021
Heartbeat CPU 0 instructions: 78000003 cycles: 178264947 heartbeat IPC: 0.327347 cumulative IPC: 0.394207 (Simulation time: 0 hr 47 min 11 sec) 
select_counter is 1023
Heartbeat CPU 0 instructions: 79000001 cycles: 181265169 heartbeat IPC: 0.333308 cumulative IPC: 0.393166 (Simulation time: 0 hr 47 min 31 sec) 
select_counter is 1023
Heartbeat CPU 0 instructions: 80000000 cycles: 184292833 heartbeat IPC: 0.330287 cumulative IPC: 0.3921 (Simulation time: 0 hr 47 min 48 sec) 
select_counter is 1023
Heartbeat CPU 0 instructions: 81000000 cycles: 187341469 heartbeat IPC: 0.328016 cumulative IPC: 0.391024 (Simulation time: 0 hr 48 min 4 sec) 
select_counter is 1022
Heartbeat CPU 0 instructions: 82000000 cycles: 190399946 heartbeat IPC: 0.32696 cumulative IPC: 0.389963 (Simulation time: 0 hr 48 min 20 sec) 
select_counter is 1023
Heartbeat CPU 0 instructions: 83000003 cycles: 193429339 heartbeat IPC: 0.3301 cumulative IPC: 0.388996 (Simulation time: 0 hr 48 min 36 sec) 
select_counter is 1023
Heartbeat CPU 0 instructions: 84000000 cycles: 196476331 heartbeat IPC: 0.328192 cumulative IPC: 0.388025 (Simulation time: 0 hr 48 min 53 sec) 
select_counter is 1022
Heartbeat CPU 0 instructions: 85000001 cycles: 199581540 heartbeat IPC: 0.32204 cumulative IPC: 0.386968 (Simulation time: 0 hr 49 min 8 sec) 
select_counter is 1023
Heartbeat CPU 0 instructions: 86000002 cycles: 202633653 heartbeat IPC: 0.327642 cumulative IPC: 0.386048 (Simulation time: 0 hr 49 min 23 sec) 
select_counter is 1023
Heartbeat CPU 0 instructions: 87000000 cycles: 205687899 heartbeat IPC: 0.327412 cumulative IPC: 0.385152 (Simulation time: 0 hr 49 min 39 sec) 
select_counter is 1023
Heartbeat CPU 0 instructions: 88000000 cycles: 208800183 heartbeat IPC: 0.321307 cumulative IPC: 0.384174 (Simulation time: 0 hr 49 min 54 sec) 
select_counter is 1023
Heartbeat CPU 0 instructions: 89000000 cycles: 211910892 heartbeat IPC: 0.32147 cumulative IPC: 0.383227 (Simulation time: 0 hr 50 min 8 sec) 
select_counter is 1023
Heartbeat CPU 0 instructions: 90000002 cycles: 215042329 heartbeat IPC: 0.319343 cumulative IPC: 0.382271 (Simulation time: 0 hr 50 min 21 sec) 
select_counter is 1023
Heartbeat CPU 0 instructions: 91000000 cycles: 218147983 heartbeat IPC: 0.321993 cumulative IPC: 0.38139 (Simulation time: 0 hr 50 min 33 sec) 
select_counter is 1023
Heartbeat CPU 0 instructions: 92000000 cycles: 221241221 heartbeat IPC: 0.323286 cumulative IPC: 0.380556 (Simulation time: 0 hr 50 min 45 sec) 
select_counter is 1021
Heartbeat CPU 0 instructions: 93000001 cycles: 224355629 heartbeat IPC: 0.321089 cumulative IPC: 0.379709 (Simulation time: 0 hr 50 min 58 sec) 
select_counter is 1022
Heartbeat CPU 0 instructions: 94000000 cycles: 227390497 heartbeat IPC: 0.329503 cumulative IPC: 0.379021 (Simulation time: 0 hr 51 min 10 sec) 
select_counter is 1023
Heartbeat CPU 0 instructions: 95000001 cycles: 230420223 heartbeat IPC: 0.330063 cumulative IPC: 0.378361 (Simulation time: 0 hr 51 min 20 sec) 
select_counter is 1023
Heartbeat CPU 0 instructions: 96000000 cycles: 233507062 heartbeat IPC: 0.323956 cumulative IPC: 0.377623 (Simulation time: 0 hr 51 min 31 sec) 
select_counter is 1023
Heartbeat CPU 0 instructions: 97000002 cycles: 236600079 heartbeat IPC: 0.32331 cumulative IPC: 0.376896 (Simulation time: 0 hr 51 min 41 sec) 
select_counter is 1023
Heartbeat CPU 0 instructions: 98000000 cycles: 239745424 heartbeat IPC: 0.31793 cumulative IPC: 0.376103 (Simulation time: 0 hr 51 min 50 sec) 
select_counter is 1023
Heartbeat CPU 0 instructions: 99000000 cycles: 242749020 heartbeat IPC: 0.332934 cumulative IPC: 0.375556 (Simulation time: 0 hr 51 min 59 sec) 
select_counter is 1023
Heartbeat CPU 0 instructions: 100000000 cycles: 245862667 heartbeat IPC: 0.321167 cumulative IPC: 0.374851 (Simulation time: 0 hr 52 min 6 sec) 
select_counter is 1020
Heartbeat CPU 0 instructions: 101000001 cycles: 248962180 heartbeat IPC: 0.322632 cumulative IPC: 0.374185 (Simulation time: 0 hr 52 min 12 sec) 
select_counter is 1022
Heartbeat CPU 0 instructions: 102000003 cycles: 252066747 heartbeat IPC: 0.322107 cumulative IPC: 0.373529 (Simulation time: 0 hr 52 min 17 sec) 
select_counter is 1023
Heartbeat CPU 0 instructions: 103000000 cycles: 255110852 heartbeat IPC: 0.328503 cumulative IPC: 0.372979 (Simulation time: 0 hr 52 min 22 sec) 
select_counter is 1023
Heartbeat CPU 0 instructions: 104000000 cycles: 258224913 heartbeat IPC: 0.321124 cumulative IPC: 0.372339 (Simulation time: 0 hr 52 min 26 sec) 
select_counter is 1023
Heartbeat CPU 0 instructions: 105000000 cycles: 261325854 heartbeat IPC: 0.322483 cumulative IPC: 0.371734 (Simulation time: 0 hr 52 min 31 sec) 
select_counter is 1023
Heartbeat CPU 0 instructions: 106000000 cycles: 264395027 heartbeat IPC: 0.325821 cumulative IPC: 0.371189 (Simulation time: 0 hr 52 min 36 sec) 
select_counter is 1020
Heartbeat CPU 0 instructions: 107000003 cycles: 267494386 heartbeat IPC: 0.322648 cumulative IPC: 0.370615 (Simulation time: 0 hr 52 min 40 sec) 
select_counter is 1021
Heartbeat CPU 0 instructions: 108000000 cycles: 270600875 heartbeat IPC: 0.321906 cumulative IPC: 0.370043 (Simulation time: 0 hr 52 min 44 sec) 
select_counter is 1021
Heartbeat CPU 0 instructions: 109000003 cycles: 273639522 heartbeat IPC: 0.329095 cumulative IPC: 0.369579 (Simulation time: 0 hr 52 min 49 sec) 
select_counter is 1023
Heartbeat CPU 0 instructions: 110000002 cycles: 276738163 heartbeat IPC: 0.322722 cumulative IPC: 0.369043 (Simulation time: 0 hr 52 min 53 sec) 
select_counter is 1023
Finished CPU 0 instructions: 100000001 cycles: 270971212 cummulative IPC: 0.369043 (Simulation time: 0 hr 52 min 53 sec) 

ChampSim completed all CPUs

Region of Interest Statistics

CPU 0 cummulative IPC: 0.369043 instructions: 100000001 cycles: 270971212
LLC TOTAL     ACCESS:    4564552  HIT:    1190579  MISS:    3373973
LLC LOAD      ACCESS:    3073735  HIT:     634483  MISS:    2439252
LLC RFO       ACCESS:     126461  HIT:     113870  MISS:      12591
LLC PREFETCH  ACCESS:          0  HIT:          0  MISS:          0
LLC WRITEBACK ACCESS:    1364356  HIT:     442226  MISS:     922130
Ship samples: 
7, 56, 82, 125, 142, 187, 193, 254, 280, 305, 324, 361, 400, 442, 473, 510, 543, 555, 594, 615, 663, 680, 709, 764, 774, 824, 851, 869, 913, 955, 966, 995, 1038, 1086, 1098, 1134, 1159, 1209, 1244, 1257, 1283, 1324, 1348, 1402, 1425, 1440, 1486, 1533, 1554, 1598, 1600, 1661, 1666, 1716, 1740, 1760, 1823, 1830, 1886, 1913, 1941, 1958, 2013, 2016, 
Lime duel samples: 
12, 121, 219, 288, 410, 487, 600, 674, 797, 866, 971, 1070, 1153, 1269, 1366, 1461, 1565, 1644, 1758, 1836, 1935, 
Lime samples: 
12, 121, 219, 288, 410, 487, 600, 674, 797, 866, 971, 1070, 1153, 1269, 1366, 1461, 1565, 1644, 1758, 1836, 1935, 
Insertion Distribution: 
	LOAD 14038 0 0 0 0 0 7976 64883 
	RFO 18 0 0 0 0 0 79 809 
	PREF 0 0 0 0 0 0 0 0 
	WRITEBACK 0 0 0 0 0 0 0 39214 
Total Prefetch Downgrades: 0
