
*** ChampSim Multicore Out-of-Order Simulator ***

Warmup Instructions: 10000000
Simulation Instructions: 100000000
Configuration: 1
Number of CPUs: 1
LLC sets: 2048
LLC ways: 16
Off-chip DRAM Channels: 1 Width: 64-bit Data Rate: 1600 MT/s

CPU 0 runs /datasets/cs240c-wi22-a00-public/data/Assignment2-gz/zeusmp_300B.trace.gz
Heartbeat CPU 0 instructions: 1000003 cycles: 508391 heartbeat IPC: 1.967 cumulative IPC: 1.967 (Simulation time: 0 hr 0 min 21 sec) 
select_counter is 635
Heartbeat CPU 0 instructions: 2000003 cycles: 1059161 heartbeat IPC: 1.81564 cumulative IPC: 1.88829 (Simulation time: 0 hr 0 min 44 sec) 
select_counter is 715
Heartbeat CPU 0 instructions: 3000002 cycles: 1602081 heartbeat IPC: 1.84189 cumulative IPC: 1.87257 (Simulation time: 0 hr 1 min 5 sec) 
select_counter is 806
Heartbeat CPU 0 instructions: 4000000 cycles: 2087846 heartbeat IPC: 2.0586 cumulative IPC: 1.91585 (Simulation time: 0 hr 1 min 25 sec) 
select_counter is 852
Heartbeat CPU 0 instructions: 5000001 cycles: 2571024 heartbeat IPC: 2.06963 cumulative IPC: 1.94475 (Simulation time: 0 hr 1 min 46 sec) 
select_counter is 903
Heartbeat CPU 0 instructions: 6000000 cycles: 3056831 heartbeat IPC: 2.05843 cumulative IPC: 1.96282 (Simulation time: 0 hr 2 min 6 sec) 
select_counter is 955
Heartbeat CPU 0 instructions: 7000001 cycles: 3583711 heartbeat IPC: 1.89797 cumulative IPC: 1.95328 (Simulation time: 0 hr 2 min 26 sec) 
select_counter is 1022
Heartbeat CPU 0 instructions: 8000000 cycles: 4135929 heartbeat IPC: 1.81088 cumulative IPC: 1.93427 (Simulation time: 0 hr 2 min 47 sec) 
select_counter is 1023
Heartbeat CPU 0 instructions: 9000000 cycles: 4662646 heartbeat IPC: 1.89855 cumulative IPC: 1.93023 (Simulation time: 0 hr 3 min 8 sec) 
select_counter is 1023
Heartbeat CPU 0 instructions: 10000002 cycles: 5147795 heartbeat IPC: 2.06123 cumulative IPC: 1.94258 (Simulation time: 0 hr 3 min 29 sec) 
select_counter is 1023

Warmup complete CPU 0 instructions: 10000002 cycles: 5147795 (Simulation time: 0 hr 3 min 29 sec) 

Heartbeat CPU 0 instructions: 11000003 cycles: 6015095 heartbeat IPC: 1.153 cumulative IPC: 1.153 (Simulation time: 0 hr 3 min 55 sec) 
select_counter is 1023
Heartbeat CPU 0 instructions: 12000000 cycles: 6878767 heartbeat IPC: 1.15784 cumulative IPC: 1.15542 (Simulation time: 0 hr 4 min 19 sec) 
select_counter is 1021
Heartbeat CPU 0 instructions: 13000000 cycles: 7870555 heartbeat IPC: 1.00828 cumulative IPC: 1.10182 (Simulation time: 0 hr 4 min 42 sec) 
select_counter is 1023
Heartbeat CPU 0 instructions: 14000000 cycles: 8895214 heartbeat IPC: 0.975934 cumulative IPC: 1.0674 (Simulation time: 0 hr 5 min 9 sec) 
select_counter is 1022
Heartbeat CPU 0 instructions: 15000002 cycles: 9812677 heartbeat IPC: 1.08996 cumulative IPC: 1.07184 (Simulation time: 0 hr 5 min 32 sec) 
select_counter is 1023
Heartbeat CPU 0 instructions: 16000000 cycles: 10678320 heartbeat IPC: 1.15521 cumulative IPC: 1.08489 (Simulation time: 0 hr 5 min 57 sec) 
select_counter is 1023
Heartbeat CPU 0 instructions: 17000002 cycles: 11553303 heartbeat IPC: 1.14288 cumulative IPC: 1.09281 (Simulation time: 0 hr 6 min 20 sec) 
select_counter is 1023
Heartbeat CPU 0 instructions: 18000000 cycles: 12436494 heartbeat IPC: 1.13226 cumulative IPC: 1.09759 (Simulation time: 0 hr 6 min 45 sec) 
select_counter is 1022
Heartbeat CPU 0 instructions: 19000003 cycles: 13460622 heartbeat IPC: 0.976443 cumulative IPC: 1.08266 (Simulation time: 0 hr 7 min 9 sec) 
select_counter is 1022
Heartbeat CPU 0 instructions: 20000000 cycles: 14482128 heartbeat IPC: 0.978944 cumulative IPC: 1.07131 (Simulation time: 0 hr 7 min 32 sec) 
select_counter is 1023
Heartbeat CPU 0 instructions: 21000001 cycles: 15358139 heartbeat IPC: 1.14154 cumulative IPC: 1.07734 (Simulation time: 0 hr 7 min 55 sec) 
select_counter is 1023
Heartbeat CPU 0 instructions: 22000000 cycles: 16225880 heartbeat IPC: 1.15242 cumulative IPC: 1.08322 (Simulation time: 0 hr 8 min 17 sec) 
select_counter is 1023
Heartbeat CPU 0 instructions: 23000001 cycles: 17095624 heartbeat IPC: 1.14976 cumulative IPC: 1.08806 (Simulation time: 0 hr 8 min 41 sec) 
select_counter is 1023
Heartbeat CPU 0 instructions: 24000000 cycles: 18009681 heartbeat IPC: 1.09402 cumulative IPC: 1.08849 (Simulation time: 0 hr 9 min 4 sec) 
select_counter is 1023
Heartbeat CPU 0 instructions: 25000000 cycles: 19030657 heartbeat IPC: 0.979455 cumulative IPC: 1.08047 (Simulation time: 0 hr 9 min 29 sec) 
select_counter is 1022
Heartbeat CPU 0 instructions: 26000003 cycles: 20029928 heartbeat IPC: 1.00073 cumulative IPC: 1.07511 (Simulation time: 0 hr 9 min 53 sec) 
select_counter is 1022
Heartbeat CPU 0 instructions: 27000002 cycles: 20892181 heartbeat IPC: 1.15975 cumulative IPC: 1.07975 (Simulation time: 0 hr 10 min 18 sec) 
select_counter is 1023
Heartbeat CPU 0 instructions: 28000000 cycles: 21758561 heartbeat IPC: 1.15423 cumulative IPC: 1.08363 (Simulation time: 0 hr 10 min 43 sec) 
select_counter is 1022
Heartbeat CPU 0 instructions: 29000003 cycles: 22624021 heartbeat IPC: 1.15546 cumulative IPC: 1.08719 (Simulation time: 0 hr 11 min 8 sec) 
select_counter is 1023
Heartbeat CPU 0 instructions: 30000002 cycles: 23568772 heartbeat IPC: 1.05848 cumulative IPC: 1.08572 (Simulation time: 0 hr 11 min 33 sec) 
select_counter is 1023
Heartbeat CPU 0 instructions: 31000001 cycles: 24593290 heartbeat IPC: 0.976068 cumulative IPC: 1.07994 (Simulation time: 0 hr 11 min 57 sec) 
select_counter is 1023
Heartbeat CPU 0 instructions: 32000000 cycles: 25564854 heartbeat IPC: 1.02927 cumulative IPC: 1.07753 (Simulation time: 0 hr 12 min 19 sec) 
select_counter is 1023
Heartbeat CPU 0 instructions: 33000000 cycles: 26426276 heartbeat IPC: 1.16087 cumulative IPC: 1.0809 (Simulation time: 0 hr 12 min 43 sec) 
select_counter is 1023
Heartbeat CPU 0 instructions: 34000000 cycles: 27297553 heartbeat IPC: 1.14774 cumulative IPC: 1.08353 (Simulation time: 0 hr 13 min 7 sec) 
select_counter is 1023
Heartbeat CPU 0 instructions: 35000002 cycles: 28163985 heartbeat IPC: 1.15416 cumulative IPC: 1.08619 (Simulation time: 0 hr 13 min 31 sec) 
select_counter is 1023
Heartbeat CPU 0 instructions: 36000000 cycles: 29142241 heartbeat IPC: 1.02223 cumulative IPC: 1.08358 (Simulation time: 0 hr 13 min 54 sec) 
select_counter is 1022
Heartbeat CPU 0 instructions: 37000003 cycles: 30165288 heartbeat IPC: 0.977475 cumulative IPC: 1.07924 (Simulation time: 0 hr 14 min 19 sec) 
select_counter is 1022
Heartbeat CPU 0 instructions: 38000001 cycles: 31100703 heartbeat IPC: 1.06904 cumulative IPC: 1.07888 (Simulation time: 0 hr 14 min 42 sec) 
select_counter is 1023
Heartbeat CPU 0 instructions: 39000002 cycles: 31966219 heartbeat IPC: 1.15538 cumulative IPC: 1.08135 (Simulation time: 0 hr 15 min 6 sec) 
select_counter is 1023
Heartbeat CPU 0 instructions: 40000000 cycles: 32840880 heartbeat IPC: 1.1433 cumulative IPC: 1.0833 (Simulation time: 0 hr 15 min 30 sec) 
select_counter is 1022
Heartbeat CPU 0 instructions: 41000001 cycles: 33714722 heartbeat IPC: 1.14437 cumulative IPC: 1.08517 (Simulation time: 0 hr 15 min 52 sec) 
select_counter is 1023
Heartbeat CPU 0 instructions: 42000002 cycles: 34738496 heartbeat IPC: 0.976779 cumulative IPC: 1.08142 (Simulation time: 0 hr 16 min 17 sec) 
select_counter is 1023
Heartbeat CPU 0 instructions: 43000003 cycles: 35758447 heartbeat IPC: 0.98044 cumulative IPC: 1.07806 (Simulation time: 0 hr 16 min 42 sec) 
select_counter is 1021
Heartbeat CPU 0 instructions: 44000000 cycles: 36656505 heartbeat IPC: 1.11351 cumulative IPC: 1.07907 (Simulation time: 0 hr 17 min 5 sec) 
select_counter is 1023
Heartbeat CPU 0 instructions: 45000002 cycles: 37524925 heartbeat IPC: 1.15152 cumulative IPC: 1.08101 (Simulation time: 0 hr 17 min 25 sec) 
select_counter is 1022
Heartbeat CPU 0 instructions: 46000002 cycles: 38394968 heartbeat IPC: 1.14937 cumulative IPC: 1.0828 (Simulation time: 0 hr 17 min 47 sec) 
select_counter is 1023
Heartbeat CPU 0 instructions: 47000001 cycles: 39302726 heartbeat IPC: 1.10161 cumulative IPC: 1.0833 (Simulation time: 0 hr 18 min 8 sec) 
select_counter is 1022
Heartbeat CPU 0 instructions: 48000000 cycles: 40321651 heartbeat IPC: 0.981426 cumulative IPC: 1.08035 (Simulation time: 0 hr 18 min 31 sec) 
select_counter is 1023
Heartbeat CPU 0 instructions: 49000003 cycles: 41334440 heartbeat IPC: 0.987375 cumulative IPC: 1.07775 (Simulation time: 0 hr 18 min 52 sec) 
select_counter is 1020
Heartbeat CPU 0 instructions: 50000001 cycles: 42193605 heartbeat IPC: 1.16392 cumulative IPC: 1.07974 (Simulation time: 0 hr 19 min 13 sec) 
select_counter is 1021
Heartbeat CPU 0 instructions: 51000002 cycles: 43062107 heartbeat IPC: 1.15141 cumulative IPC: 1.08139 (Simulation time: 0 hr 19 min 33 sec) 
select_counter is 1023
Heartbeat CPU 0 instructions: 52000000 cycles: 43940924 heartbeat IPC: 1.13789 cumulative IPC: 1.08267 (Simulation time: 0 hr 19 min 52 sec) 
select_counter is 1023
Heartbeat CPU 0 instructions: 53000000 cycles: 44881944 heartbeat IPC: 1.06268 cumulative IPC: 1.08219 (Simulation time: 0 hr 20 min 12 sec) 
select_counter is 1023
Heartbeat CPU 0 instructions: 54000002 cycles: 45903169 heartbeat IPC: 0.979218 cumulative IPC: 1.07961 (Simulation time: 0 hr 20 min 31 sec) 
select_counter is 1023
Heartbeat CPU 0 instructions: 55000001 cycles: 46878988 heartbeat IPC: 1.02478 cumulative IPC: 1.07833 (Simulation time: 0 hr 20 min 51 sec) 
select_counter is 1022
Heartbeat CPU 0 instructions: 56000000 cycles: 47747529 heartbeat IPC: 1.15136 cumulative IPC: 1.07982 (Simulation time: 0 hr 21 min 8 sec) 
select_counter is 1023
Heartbeat CPU 0 instructions: 57000000 cycles: 48620298 heartbeat IPC: 1.14578 cumulative IPC: 1.08114 (Simulation time: 0 hr 21 min 27 sec) 
select_counter is 1023
Heartbeat CPU 0 instructions: 58000000 cycles: 49502396 heartbeat IPC: 1.13366 cumulative IPC: 1.08219 (Simulation time: 0 hr 21 min 47 sec) 
select_counter is 1023
Heartbeat CPU 0 instructions: 59000003 cycles: 50472590 heartbeat IPC: 1.03072 cumulative IPC: 1.08109 (Simulation time: 0 hr 22 min 6 sec) 
select_counter is 1023
Heartbeat CPU 0 instructions: 60000000 cycles: 51492535 heartbeat IPC: 0.980442 cumulative IPC: 1.07887 (Simulation time: 0 hr 22 min 25 sec) 
select_counter is 1023
Heartbeat CPU 0 instructions: 61000000 cycles: 52436444 heartbeat IPC: 1.05942 cumulative IPC: 1.07848 (Simulation time: 0 hr 22 min 45 sec) 
select_counter is 1022
Heartbeat CPU 0 instructions: 62000002 cycles: 53307244 heartbeat IPC: 1.14837 cumulative IPC: 1.07975 (Simulation time: 0 hr 23 min 4 sec) 
select_counter is 1022
Heartbeat CPU 0 instructions: 63000003 cycles: 54183922 heartbeat IPC: 1.14067 cumulative IPC: 1.08084 (Simulation time: 0 hr 23 min 24 sec) 
select_counter is 1023
Heartbeat CPU 0 instructions: 64000000 cycles: 55055980 heartbeat IPC: 1.14671 cumulative IPC: 1.08199 (Simulation time: 0 hr 23 min 46 sec) 
select_counter is 1023
Heartbeat CPU 0 instructions: 65000003 cycles: 56060376 heartbeat IPC: 0.995626 cumulative IPC: 1.08028 (Simulation time: 0 hr 24 min 7 sec) 
select_counter is 1020
Heartbeat CPU 0 instructions: 66000003 cycles: 57078606 heartbeat IPC: 0.982096 cumulative IPC: 1.07836 (Simulation time: 0 hr 24 min 27 sec) 
select_counter is 1019
Heartbeat CPU 0 instructions: 67000002 cycles: 57993241 heartbeat IPC: 1.09333 cumulative IPC: 1.07862 (Simulation time: 0 hr 24 min 46 sec) 
select_counter is 1023
Heartbeat CPU 0 instructions: 68000000 cycles: 58872906 heartbeat IPC: 1.13679 cumulative IPC: 1.07957 (Simulation time: 0 hr 25 min 5 sec) 
select_counter is 1022
Heartbeat CPU 0 instructions: 69000000 cycles: 59763700 heartbeat IPC: 1.12259 cumulative IPC: 1.08027 (Simulation time: 0 hr 25 min 25 sec) 
select_counter is 1023
Heartbeat CPU 0 instructions: 70000001 cycles: 60664883 heartbeat IPC: 1.10965 cumulative IPC: 1.08075 (Simulation time: 0 hr 25 min 44 sec) 
select_counter is 1023
Heartbeat CPU 0 instructions: 71000001 cycles: 61680963 heartbeat IPC: 0.984174 cumulative IPC: 1.07901 (Simulation time: 0 hr 26 min 4 sec) 
select_counter is 1022
Heartbeat CPU 0 instructions: 72000000 cycles: 62700014 heartbeat IPC: 0.981304 cumulative IPC: 1.07728 (Simulation time: 0 hr 26 min 25 sec) 
select_counter is 1023
Heartbeat CPU 0 instructions: 73000003 cycles: 63572018 heartbeat IPC: 1.14679 cumulative IPC: 1.07832 (Simulation time: 0 hr 26 min 45 sec) 
select_counter is 1023
Heartbeat CPU 0 instructions: 74000001 cycles: 64442154 heartbeat IPC: 1.14924 cumulative IPC: 1.07936 (Simulation time: 0 hr 27 min 4 sec) 
select_counter is 1023
Heartbeat CPU 0 instructions: 75000003 cycles: 65318392 heartbeat IPC: 1.14124 cumulative IPC: 1.08026 (Simulation time: 0 hr 27 min 23 sec) 
select_counter is 1022
Heartbeat CPU 0 instructions: 76000000 cycles: 66245755 heartbeat IPC: 1.07832 cumulative IPC: 1.08023 (Simulation time: 0 hr 27 min 42 sec) 
select_counter is 1021
Heartbeat CPU 0 instructions: 77000003 cycles: 67266578 heartbeat IPC: 0.979605 cumulative IPC: 1.07858 (Simulation time: 0 hr 28 min 2 sec) 
select_counter is 1023
Heartbeat CPU 0 instructions: 78000003 cycles: 68253275 heartbeat IPC: 1.01348 cumulative IPC: 1.07756 (Simulation time: 0 hr 28 min 22 sec) 
select_counter is 1023
Heartbeat CPU 0 instructions: 79000001 cycles: 69132093 heartbeat IPC: 1.13789 cumulative IPC: 1.07839 (Simulation time: 0 hr 28 min 41 sec) 
select_counter is 1023
Heartbeat CPU 0 instructions: 80000000 cycles: 70016182 heartbeat IPC: 1.13111 cumulative IPC: 1.07911 (Simulation time: 0 hr 29 min 2 sec) 
select_counter is 1022
Heartbeat CPU 0 instructions: 81000000 cycles: 70901525 heartbeat IPC: 1.12951 cumulative IPC: 1.07979 (Simulation time: 0 hr 29 min 22 sec) 
select_counter is 1022
Heartbeat CPU 0 instructions: 82000002 cycles: 71872321 heartbeat IPC: 1.03008 cumulative IPC: 1.07906 (Simulation time: 0 hr 29 min 43 sec) 
select_counter is 1023
Heartbeat CPU 0 instructions: 83000001 cycles: 72891323 heartbeat IPC: 0.981351 cumulative IPC: 1.07759 (Simulation time: 0 hr 30 min 3 sec) 
select_counter is 1023
Heartbeat CPU 0 instructions: 84000000 cycles: 73843698 heartbeat IPC: 1.05001 cumulative IPC: 1.07721 (Simulation time: 0 hr 30 min 22 sec) 
select_counter is 1023
Heartbeat CPU 0 instructions: 85000001 cycles: 74713011 heartbeat IPC: 1.15033 cumulative IPC: 1.07812 (Simulation time: 0 hr 30 min 42 sec) 
select_counter is 1023
Heartbeat CPU 0 instructions: 86000002 cycles: 75589675 heartbeat IPC: 1.14069 cumulative IPC: 1.0789 (Simulation time: 0 hr 31 min 1 sec) 
select_counter is 1023
Heartbeat CPU 0 instructions: 87000000 cycles: 76463307 heartbeat IPC: 1.14464 cumulative IPC: 1.07971 (Simulation time: 0 hr 31 min 22 sec) 
select_counter is 1022
Heartbeat CPU 0 instructions: 88000000 cycles: 77457808 heartbeat IPC: 1.00553 cumulative IPC: 1.07869 (Simulation time: 0 hr 31 min 42 sec) 
select_counter is 1023
Heartbeat CPU 0 instructions: 89000000 cycles: 78474383 heartbeat IPC: 0.983695 cumulative IPC: 1.07737 (Simulation time: 0 hr 32 min 2 sec) 
select_counter is 1023
Heartbeat CPU 0 instructions: 90000002 cycles: 79401505 heartbeat IPC: 1.07861 cumulative IPC: 1.07739 (Simulation time: 0 hr 32 min 23 sec) 
select_counter is 1023
Heartbeat CPU 0 instructions: 91000002 cycles: 80290308 heartbeat IPC: 1.12511 cumulative IPC: 1.07795 (Simulation time: 0 hr 32 min 41 sec) 
select_counter is 1023
Heartbeat CPU 0 instructions: 92000000 cycles: 81180925 heartbeat IPC: 1.12281 cumulative IPC: 1.07848 (Simulation time: 0 hr 33 min 1 sec) 
select_counter is 1021
Heartbeat CPU 0 instructions: 93000001 cycles: 82063129 heartbeat IPC: 1.13353 cumulative IPC: 1.07911 (Simulation time: 0 hr 33 min 21 sec) 
select_counter is 1023
Heartbeat CPU 0 instructions: 94000000 cycles: 83091009 heartbeat IPC: 0.972875 cumulative IPC: 1.07771 (Simulation time: 0 hr 33 min 40 sec) 
select_counter is 1023
Heartbeat CPU 0 instructions: 95000003 cycles: 84108088 heartbeat IPC: 0.983211 cumulative IPC: 1.07649 (Simulation time: 0 hr 33 min 59 sec) 
select_counter is 1021
Heartbeat CPU 0 instructions: 96000000 cycles: 84990568 heartbeat IPC: 1.13317 cumulative IPC: 1.07712 (Simulation time: 0 hr 34 min 19 sec) 
select_counter is 1023
Heartbeat CPU 0 instructions: 97000001 cycles: 85858008 heartbeat IPC: 1.15282 cumulative IPC: 1.07793 (Simulation time: 0 hr 34 min 39 sec) 
select_counter is 1023
Heartbeat CPU 0 instructions: 98000000 cycles: 86730611 heartbeat IPC: 1.146 cumulative IPC: 1.07866 (Simulation time: 0 hr 34 min 57 sec) 
select_counter is 1023
Heartbeat CPU 0 instructions: 99000001 cycles: 87639185 heartbeat IPC: 1.10063 cumulative IPC: 1.0789 (Simulation time: 0 hr 35 min 16 sec) 
select_counter is 1023
Heartbeat CPU 0 instructions: 100000000 cycles: 88657499 heartbeat IPC: 0.982014 cumulative IPC: 1.07772 (Simulation time: 0 hr 35 min 37 sec) 
select_counter is 1023
Heartbeat CPU 0 instructions: 101000001 cycles: 89662976 heartbeat IPC: 0.994554 cumulative IPC: 1.07673 (Simulation time: 0 hr 35 min 58 sec) 
select_counter is 1023
Heartbeat CPU 0 instructions: 102000003 cycles: 90525766 heartbeat IPC: 1.15903 cumulative IPC: 1.07756 (Simulation time: 0 hr 36 min 17 sec) 
select_counter is 1023
Heartbeat CPU 0 instructions: 103000003 cycles: 91394997 heartbeat IPC: 1.15044 cumulative IPC: 1.0783 (Simulation time: 0 hr 36 min 36 sec) 
select_counter is 1023
Heartbeat CPU 0 instructions: 104000000 cycles: 92262725 heartbeat IPC: 1.15243 cumulative IPC: 1.07903 (Simulation time: 0 hr 36 min 55 sec) 
select_counter is 1022
Heartbeat CPU 0 instructions: 105000001 cycles: 93210851 heartbeat IPC: 1.05471 cumulative IPC: 1.07877 (Simulation time: 0 hr 37 min 16 sec) 
select_counter is 1022
Heartbeat CPU 0 instructions: 106000002 cycles: 94222501 heartbeat IPC: 0.988485 cumulative IPC: 1.07775 (Simulation time: 0 hr 37 min 35 sec) 
select_counter is 1023
Heartbeat CPU 0 instructions: 107000003 cycles: 95193469 heartbeat IPC: 1.0299 cumulative IPC: 1.07723 (Simulation time: 0 hr 37 min 53 sec) 
select_counter is 1023
Heartbeat CPU 0 instructions: 108000000 cycles: 96061608 heartbeat IPC: 1.15189 cumulative IPC: 1.07794 (Simulation time: 0 hr 38 min 13 sec) 
select_counter is 1022
Heartbeat CPU 0 instructions: 109000001 cycles: 96934166 heartbeat IPC: 1.14606 cumulative IPC: 1.07859 (Simulation time: 0 hr 38 min 31 sec) 
select_counter is 1023
Heartbeat CPU 0 instructions: 110000000 cycles: 97808112 heartbeat IPC: 1.14423 cumulative IPC: 1.07921 (Simulation time: 0 hr 38 min 49 sec) 
select_counter is 1023
Finished CPU 0 instructions: 100000002 cycles: 92660318 cummulative IPC: 1.07921 (Simulation time: 0 hr 38 min 49 sec) 

ChampSim completed all CPUs

Region of Interest Statistics

CPU 0 cummulative IPC: 1.07921 instructions: 100000002 cycles: 92660318
LLC TOTAL     ACCESS:     613105  HIT:     295659  MISS:     317446
LLC LOAD      ACCESS:     304677  HIT:     110599  MISS:     194078
LLC RFO       ACCESS:     151946  HIT:      74957  MISS:      76989
LLC PREFETCH  ACCESS:          0  HIT:          0  MISS:          0
LLC WRITEBACK ACCESS:     156482  HIT:     110103  MISS:      46379
Ship samples: 
17, 59, 78, 105, 147, 177, 211, 252, 259, 303, 351, 355, 392, 433, 468, 505, 522, 559, 587, 637, 651, 692, 722, 744, 793, 806, 859, 877, 925, 957, 985, 996, 1029, 1079, 1114, 1128, 1162, 1211, 1230, 1268, 1304, 1313, 1369, 1407, 1410, 1464, 1492, 1516, 1563, 1579, 1618, 1658, 1679, 1703, 1737, 1785, 1806, 1838, 1881, 1909, 1942, 1969, 2001, 2043, 
Lime duel samples: 
0, 118, 214, 296, 405, 507, 600, 687, 790, 873, 977, 1084, 1161, 1265, 1345, 1456, 1553, 1652, 1729, 1850, 1930, 
Lime samples: 
0, 118, 214, 296, 405, 507, 600, 687, 790, 873, 977, 1084, 1161, 1265, 1345, 1456, 1553, 1652, 1729, 1850, 1930, 
Insertion Distribution: 
	LOAD 1228 0 0 0 0 0 756 4723 
	RFO 8 0 0 0 0 0 283 2446 
	PREF 0 0 0 0 0 0 0 0 
	WRITEBACK 0 0 0 0 0 0 0 1901 
Total Prefetch Downgrades: 0
