
*** ChampSim Multicore Out-of-Order Simulator ***

Warmup Instructions: 10000000
Simulation Instructions: 100000000
Configuration: 1
Number of CPUs: 1
LLC sets: 2048
LLC ways: 16
Off-chip DRAM Channels: 1 Width: 64-bit Data Rate: 1600 MT/s

CPU 0 runs /datasets/cs240c-wi22-a00-public/data/Assignment2-gz/milc_744B.trace.gz
Heartbeat CPU 0 instructions: 1000000 cycles: 383399 heartbeat IPC: 2.60825 cumulative IPC: 2.60825 (Simulation time: 0 hr 0 min 23 sec) 
select_counter is 748
Heartbeat CPU 0 instructions: 2000001 cycles: 766759 heartbeat IPC: 2.60852 cumulative IPC: 2.60838 (Simulation time: 0 hr 0 min 47 sec) 
select_counter is 970
Heartbeat CPU 0 instructions: 3000001 cycles: 1150170 heartbeat IPC: 2.60817 cumulative IPC: 2.60831 (Simulation time: 0 hr 1 min 10 sec) 
select_counter is 1023
Heartbeat CPU 0 instructions: 4000000 cycles: 1533552 heartbeat IPC: 2.60836 cumulative IPC: 2.60832 (Simulation time: 0 hr 1 min 33 sec) 
select_counter is 1022
Heartbeat CPU 0 instructions: 5000001 cycles: 1916947 heartbeat IPC: 2.60828 cumulative IPC: 2.60831 (Simulation time: 0 hr 1 min 56 sec) 
select_counter is 1022
Heartbeat CPU 0 instructions: 6000002 cycles: 2300332 heartbeat IPC: 2.60835 cumulative IPC: 2.60832 (Simulation time: 0 hr 2 min 19 sec) 
select_counter is 1019
Heartbeat CPU 0 instructions: 7000002 cycles: 2683720 heartbeat IPC: 2.60832 cumulative IPC: 2.60832 (Simulation time: 0 hr 2 min 45 sec) 
select_counter is 1021
Heartbeat CPU 0 instructions: 8000000 cycles: 3067077 heartbeat IPC: 2.60853 cumulative IPC: 2.60835 (Simulation time: 0 hr 3 min 10 sec) 
select_counter is 1023
Heartbeat CPU 0 instructions: 9000003 cycles: 3450523 heartbeat IPC: 2.60794 cumulative IPC: 2.6083 (Simulation time: 0 hr 3 min 32 sec) 
select_counter is 1022
Heartbeat CPU 0 instructions: 10000002 cycles: 3833917 heartbeat IPC: 2.60828 cumulative IPC: 2.6083 (Simulation time: 0 hr 3 min 56 sec) 
select_counter is 1023

Warmup complete CPU 0 instructions: 10000002 cycles: 3833917 (Simulation time: 0 hr 3 min 56 sec) 

Heartbeat CPU 0 instructions: 11000000 cycles: 5791151 heartbeat IPC: 0.510924 cumulative IPC: 0.510924 (Simulation time: 0 hr 4 min 22 sec) 
select_counter is 1023
Heartbeat CPU 0 instructions: 12000000 cycles: 7740445 heartbeat IPC: 0.513006 cumulative IPC: 0.511963 (Simulation time: 0 hr 4 min 50 sec) 
select_counter is 1019
Heartbeat CPU 0 instructions: 13000003 cycles: 9691471 heartbeat IPC: 0.512552 cumulative IPC: 0.512159 (Simulation time: 0 hr 5 min 19 sec) 
select_counter is 1023
Heartbeat CPU 0 instructions: 14000000 cycles: 11649172 heartbeat IPC: 0.510802 cumulative IPC: 0.511819 (Simulation time: 0 hr 5 min 45 sec) 
select_counter is 1022
Heartbeat CPU 0 instructions: 15000001 cycles: 13596856 heartbeat IPC: 0.513431 cumulative IPC: 0.512141 (Simulation time: 0 hr 6 min 13 sec) 
select_counter is 1023
Heartbeat CPU 0 instructions: 16000000 cycles: 15546659 heartbeat IPC: 0.512872 cumulative IPC: 0.512262 (Simulation time: 0 hr 6 min 39 sec) 
select_counter is 1023
Heartbeat CPU 0 instructions: 17000001 cycles: 17500508 heartbeat IPC: 0.511811 cumulative IPC: 0.512198 (Simulation time: 0 hr 7 min 7 sec) 
select_counter is 1023
Heartbeat CPU 0 instructions: 18000000 cycles: 19457720 heartbeat IPC: 0.51093 cumulative IPC: 0.512039 (Simulation time: 0 hr 7 min 34 sec) 
select_counter is 1023
Heartbeat CPU 0 instructions: 19000000 cycles: 21412970 heartbeat IPC: 0.511444 cumulative IPC: 0.511973 (Simulation time: 0 hr 8 min 1 sec) 
select_counter is 1023
Heartbeat CPU 0 instructions: 20000000 cycles: 23370629 heartbeat IPC: 0.510814 cumulative IPC: 0.511857 (Simulation time: 0 hr 8 min 27 sec) 
select_counter is 1023
Heartbeat CPU 0 instructions: 21000003 cycles: 25324061 heartbeat IPC: 0.511921 cumulative IPC: 0.511863 (Simulation time: 0 hr 8 min 52 sec) 
select_counter is 1022
Heartbeat CPU 0 instructions: 22000002 cycles: 27281071 heartbeat IPC: 0.510983 cumulative IPC: 0.511789 (Simulation time: 0 hr 9 min 20 sec) 
select_counter is 1023
Heartbeat CPU 0 instructions: 23000002 cycles: 29230262 heartbeat IPC: 0.513033 cumulative IPC: 0.511885 (Simulation time: 0 hr 9 min 50 sec) 
select_counter is 1023
Heartbeat CPU 0 instructions: 24000000 cycles: 31175866 heartbeat IPC: 0.513978 cumulative IPC: 0.512034 (Simulation time: 0 hr 10 min 17 sec) 
select_counter is 1022
Heartbeat CPU 0 instructions: 25000002 cycles: 33128220 heartbeat IPC: 0.512203 cumulative IPC: 0.512045 (Simulation time: 0 hr 10 min 43 sec) 
select_counter is 1023
Heartbeat CPU 0 instructions: 26000001 cycles: 35078168 heartbeat IPC: 0.512834 cumulative IPC: 0.512094 (Simulation time: 0 hr 11 min 8 sec) 
select_counter is 1023
Heartbeat CPU 0 instructions: 27000001 cycles: 37033136 heartbeat IPC: 0.511517 cumulative IPC: 0.51206 (Simulation time: 0 hr 11 min 35 sec) 
select_counter is 1022
Heartbeat CPU 0 instructions: 28000000 cycles: 38983900 heartbeat IPC: 0.512619 cumulative IPC: 0.512091 (Simulation time: 0 hr 12 min 2 sec) 
select_counter is 1023
Heartbeat CPU 0 instructions: 29000000 cycles: 40945406 heartbeat IPC: 0.509812 cumulative IPC: 0.511971 (Simulation time: 0 hr 12 min 31 sec) 
select_counter is 1022
Heartbeat CPU 0 instructions: 30000000 cycles: 42905460 heartbeat IPC: 0.51019 cumulative IPC: 0.511881 (Simulation time: 0 hr 12 min 58 sec) 
select_counter is 1020
Heartbeat CPU 0 instructions: 31000003 cycles: 44872653 heartbeat IPC: 0.50834 cumulative IPC: 0.511712 (Simulation time: 0 hr 13 min 24 sec) 
select_counter is 1023
Heartbeat CPU 0 instructions: 32000000 cycles: 46832542 heartbeat IPC: 0.510231 cumulative IPC: 0.511644 (Simulation time: 0 hr 13 min 51 sec) 
select_counter is 1023
Heartbeat CPU 0 instructions: 33000001 cycles: 48792095 heartbeat IPC: 0.510321 cumulative IPC: 0.511587 (Simulation time: 0 hr 14 min 18 sec) 
select_counter is 1023
Heartbeat CPU 0 instructions: 34000003 cycles: 50750130 heartbeat IPC: 0.510717 cumulative IPC: 0.51155 (Simulation time: 0 hr 14 min 45 sec) 
select_counter is 1023
Heartbeat CPU 0 instructions: 35000002 cycles: 52705157 heartbeat IPC: 0.511501 cumulative IPC: 0.511548 (Simulation time: 0 hr 15 min 11 sec) 
select_counter is 1022
Heartbeat CPU 0 instructions: 36000000 cycles: 54661913 heartbeat IPC: 0.511049 cumulative IPC: 0.511529 (Simulation time: 0 hr 15 min 36 sec) 
select_counter is 1020
Heartbeat CPU 0 instructions: 37000001 cycles: 56621320 heartbeat IPC: 0.510359 cumulative IPC: 0.511486 (Simulation time: 0 hr 16 min 2 sec) 
select_counter is 1020
Heartbeat CPU 0 instructions: 38000001 cycles: 58570257 heartbeat IPC: 0.5131 cumulative IPC: 0.511543 (Simulation time: 0 hr 16 min 29 sec) 
select_counter is 1022
Heartbeat CPU 0 instructions: 39000001 cycles: 60532687 heartbeat IPC: 0.509572 cumulative IPC: 0.511475 (Simulation time: 0 hr 16 min 55 sec) 
select_counter is 1023
Heartbeat CPU 0 instructions: 40000000 cycles: 62486340 heartbeat IPC: 0.511861 cumulative IPC: 0.511488 (Simulation time: 0 hr 17 min 19 sec) 
select_counter is 1023
Heartbeat CPU 0 instructions: 41000000 cycles: 64448362 heartbeat IPC: 0.509678 cumulative IPC: 0.511429 (Simulation time: 0 hr 17 min 45 sec) 
select_counter is 1022
Heartbeat CPU 0 instructions: 42000002 cycles: 66395500 heartbeat IPC: 0.513575 cumulative IPC: 0.511496 (Simulation time: 0 hr 18 min 8 sec) 
select_counter is 1023
Heartbeat CPU 0 instructions: 43000003 cycles: 68351416 heartbeat IPC: 0.51127 cumulative IPC: 0.511489 (Simulation time: 0 hr 18 min 34 sec) 
select_counter is 1023
Heartbeat CPU 0 instructions: 44000000 cycles: 70308114 heartbeat IPC: 0.511064 cumulative IPC: 0.511477 (Simulation time: 0 hr 18 min 57 sec) 
select_counter is 1023
Heartbeat CPU 0 instructions: 45000000 cycles: 72267203 heartbeat IPC: 0.510441 cumulative IPC: 0.511447 (Simulation time: 0 hr 19 min 20 sec) 
select_counter is 1023
Heartbeat CPU 0 instructions: 46000003 cycles: 74224594 heartbeat IPC: 0.510886 cumulative IPC: 0.511431 (Simulation time: 0 hr 19 min 44 sec) 
select_counter is 1023
Heartbeat CPU 0 instructions: 47000002 cycles: 76175720 heartbeat IPC: 0.512524 cumulative IPC: 0.511461 (Simulation time: 0 hr 20 min 6 sec) 
select_counter is 1021
Heartbeat CPU 0 instructions: 48000000 cycles: 78141534 heartbeat IPC: 0.508694 cumulative IPC: 0.511388 (Simulation time: 0 hr 20 min 28 sec) 
select_counter is 1023
Heartbeat CPU 0 instructions: 49000001 cycles: 80099467 heartbeat IPC: 0.510743 cumulative IPC: 0.511371 (Simulation time: 0 hr 20 min 56 sec) 
select_counter is 1023
Heartbeat CPU 0 instructions: 50000001 cycles: 82052376 heartbeat IPC: 0.512057 cumulative IPC: 0.511388 (Simulation time: 0 hr 21 min 18 sec) 
select_counter is 1023
Heartbeat CPU 0 instructions: 51000001 cycles: 84009695 heartbeat IPC: 0.510903 cumulative IPC: 0.511376 (Simulation time: 0 hr 21 min 39 sec) 
select_counter is 1022
Heartbeat CPU 0 instructions: 52000000 cycles: 85958501 heartbeat IPC: 0.513134 cumulative IPC: 0.511418 (Simulation time: 0 hr 22 min 0 sec) 
select_counter is 1020
Heartbeat CPU 0 instructions: 53000000 cycles: 87915901 heartbeat IPC: 0.510882 cumulative IPC: 0.511406 (Simulation time: 0 hr 22 min 21 sec) 
select_counter is 1022
Heartbeat CPU 0 instructions: 54000001 cycles: 89871182 heartbeat IPC: 0.511436 cumulative IPC: 0.511406 (Simulation time: 0 hr 22 min 43 sec) 
select_counter is 1022
Heartbeat CPU 0 instructions: 55000003 cycles: 91833834 heartbeat IPC: 0.509516 cumulative IPC: 0.511364 (Simulation time: 0 hr 23 min 4 sec) 
select_counter is 1023
Heartbeat CPU 0 instructions: 56000000 cycles: 93794282 heartbeat IPC: 0.510086 cumulative IPC: 0.511336 (Simulation time: 0 hr 23 min 30 sec) 
select_counter is 1021
Heartbeat CPU 0 instructions: 57000000 cycles: 95746505 heartbeat IPC: 0.512237 cumulative IPC: 0.511355 (Simulation time: 0 hr 23 min 52 sec) 
select_counter is 1023
Heartbeat CPU 0 instructions: 58000000 cycles: 97696984 heartbeat IPC: 0.512695 cumulative IPC: 0.511383 (Simulation time: 0 hr 24 min 15 sec) 
select_counter is 1023
Heartbeat CPU 0 instructions: 59000000 cycles: 99653473 heartbeat IPC: 0.51112 cumulative IPC: 0.511378 (Simulation time: 0 hr 24 min 36 sec) 
select_counter is 1022
Heartbeat CPU 0 instructions: 60000000 cycles: 101602844 heartbeat IPC: 0.512986 cumulative IPC: 0.51141 (Simulation time: 0 hr 24 min 58 sec) 
select_counter is 1021
Heartbeat CPU 0 instructions: 61000001 cycles: 103555198 heartbeat IPC: 0.512203 cumulative IPC: 0.511425 (Simulation time: 0 hr 25 min 20 sec) 
select_counter is 1023
Heartbeat CPU 0 instructions: 62000001 cycles: 105515614 heartbeat IPC: 0.510096 cumulative IPC: 0.5114 (Simulation time: 0 hr 25 min 41 sec) 
select_counter is 1023
Heartbeat CPU 0 instructions: 63000001 cycles: 107471134 heartbeat IPC: 0.511373 cumulative IPC: 0.511399 (Simulation time: 0 hr 26 min 2 sec) 
select_counter is 1022
Heartbeat CPU 0 instructions: 64000000 cycles: 109421436 heartbeat IPC: 0.512741 cumulative IPC: 0.511424 (Simulation time: 0 hr 26 min 24 sec) 
select_counter is 1023
Heartbeat CPU 0 instructions: 65000002 cycles: 111377324 heartbeat IPC: 0.511278 cumulative IPC: 0.511421 (Simulation time: 0 hr 26 min 47 sec) 
select_counter is 1023
Heartbeat CPU 0 instructions: 66000001 cycles: 113331892 heartbeat IPC: 0.511621 cumulative IPC: 0.511425 (Simulation time: 0 hr 27 min 8 sec) 
select_counter is 1023
Heartbeat CPU 0 instructions: 67000003 cycles: 115290924 heartbeat IPC: 0.510457 cumulative IPC: 0.511408 (Simulation time: 0 hr 27 min 31 sec) 
select_counter is 1023
Heartbeat CPU 0 instructions: 68000000 cycles: 117250352 heartbeat IPC: 0.510351 cumulative IPC: 0.51139 (Simulation time: 0 hr 27 min 53 sec) 
select_counter is 1023
Heartbeat CPU 0 instructions: 69000003 cycles: 119209396 heartbeat IPC: 0.510455 cumulative IPC: 0.511374 (Simulation time: 0 hr 28 min 16 sec) 
select_counter is 1018
Heartbeat CPU 0 instructions: 70000002 cycles: 121157389 heartbeat IPC: 0.513348 cumulative IPC: 0.511407 (Simulation time: 0 hr 28 min 37 sec) 
select_counter is 1022
Heartbeat CPU 0 instructions: 71000000 cycles: 123101868 heartbeat IPC: 0.514276 cumulative IPC: 0.511453 (Simulation time: 0 hr 28 min 58 sec) 
select_counter is 1022
Heartbeat CPU 0 instructions: 72000000 cycles: 125060177 heartbeat IPC: 0.510645 cumulative IPC: 0.51144 (Simulation time: 0 hr 29 min 20 sec) 
select_counter is 1021
Heartbeat CPU 0 instructions: 73000002 cycles: 127015742 heartbeat IPC: 0.511362 cumulative IPC: 0.511439 (Simulation time: 0 hr 29 min 42 sec) 
select_counter is 1021
Heartbeat CPU 0 instructions: 74000001 cycles: 128907068 heartbeat IPC: 0.528729 cumulative IPC: 0.511701 (Simulation time: 0 hr 30 min 4 sec) 
select_counter is 1023
Heartbeat CPU 0 instructions: 75000001 cycles: 130858061 heartbeat IPC: 0.512559 cumulative IPC: 0.511714 (Simulation time: 0 hr 30 min 25 sec) 
select_counter is 1022
Heartbeat CPU 0 instructions: 76000000 cycles: 132822731 heartbeat IPC: 0.508991 cumulative IPC: 0.511672 (Simulation time: 0 hr 30 min 46 sec) 
select_counter is 1023
Heartbeat CPU 0 instructions: 77000002 cycles: 134777750 heartbeat IPC: 0.511505 cumulative IPC: 0.51167 (Simulation time: 0 hr 31 min 7 sec) 
select_counter is 1023
Heartbeat CPU 0 instructions: 78000000 cycles: 136733397 heartbeat IPC: 0.511339 cumulative IPC: 0.511665 (Simulation time: 0 hr 31 min 28 sec) 
select_counter is 1023
Heartbeat CPU 0 instructions: 79000000 cycles: 138694890 heartbeat IPC: 0.509816 cumulative IPC: 0.511638 (Simulation time: 0 hr 31 min 50 sec) 
select_counter is 1021
Heartbeat CPU 0 instructions: 80000000 cycles: 140655319 heartbeat IPC: 0.510092 cumulative IPC: 0.511616 (Simulation time: 0 hr 32 min 11 sec) 
select_counter is 1023
Heartbeat CPU 0 instructions: 81000003 cycles: 142605847 heartbeat IPC: 0.512683 cumulative IPC: 0.511631 (Simulation time: 0 hr 32 min 35 sec) 
select_counter is 1022
Heartbeat CPU 0 instructions: 82000003 cycles: 144560107 heartbeat IPC: 0.511703 cumulative IPC: 0.511632 (Simulation time: 0 hr 32 min 57 sec) 
select_counter is 1023
Heartbeat CPU 0 instructions: 83000001 cycles: 146517119 heartbeat IPC: 0.510982 cumulative IPC: 0.511623 (Simulation time: 0 hr 33 min 20 sec) 
select_counter is 1023
Heartbeat CPU 0 instructions: 84000000 cycles: 148467529 heartbeat IPC: 0.512712 cumulative IPC: 0.511638 (Simulation time: 0 hr 33 min 41 sec) 
select_counter is 1022
Heartbeat CPU 0 instructions: 85000000 cycles: 150437350 heartbeat IPC: 0.50766 cumulative IPC: 0.511584 (Simulation time: 0 hr 34 min 2 sec) 
select_counter is 1023
Heartbeat CPU 0 instructions: 86000002 cycles: 152386156 heartbeat IPC: 0.513136 cumulative IPC: 0.511605 (Simulation time: 0 hr 34 min 24 sec) 
select_counter is 1022
Heartbeat CPU 0 instructions: 87000001 cycles: 154347253 heartbeat IPC: 0.509918 cumulative IPC: 0.511583 (Simulation time: 0 hr 34 min 46 sec) 
select_counter is 1023
Heartbeat CPU 0 instructions: 88000000 cycles: 156307553 heartbeat IPC: 0.510126 cumulative IPC: 0.511564 (Simulation time: 0 hr 35 min 8 sec) 
select_counter is 1023
Heartbeat CPU 0 instructions: 89000003 cycles: 158256171 heartbeat IPC: 0.513186 cumulative IPC: 0.511584 (Simulation time: 0 hr 35 min 29 sec) 
select_counter is 1022
Heartbeat CPU 0 instructions: 90000000 cycles: 160215854 heartbeat IPC: 0.510285 cumulative IPC: 0.511568 (Simulation time: 0 hr 35 min 51 sec) 
select_counter is 1023
Heartbeat CPU 0 instructions: 91000001 cycles: 162170351 heartbeat IPC: 0.511641 cumulative IPC: 0.511569 (Simulation time: 0 hr 36 min 12 sec) 
select_counter is 1023
Heartbeat CPU 0 instructions: 92000000 cycles: 166823879 heartbeat IPC: 0.214891 cumulative IPC: 0.503098 (Simulation time: 0 hr 36 min 57 sec) 
select_counter is 1023
Heartbeat CPU 0 instructions: 93000000 cycles: 171492459 heartbeat IPC: 0.214198 cumulative IPC: 0.495054 (Simulation time: 0 hr 37 min 44 sec) 
select_counter is 1023
Heartbeat CPU 0 instructions: 94000000 cycles: 175004440 heartbeat IPC: 0.28474 cumulative IPC: 0.490739 (Simulation time: 0 hr 38 min 23 sec) 
select_counter is 1023
Heartbeat CPU 0 instructions: 95000000 cycles: 177391723 heartbeat IPC: 0.418886 cumulative IPC: 0.48975 (Simulation time: 0 hr 38 min 49 sec) 
select_counter is 1023
Heartbeat CPU 0 instructions: 96000000 cycles: 178973212 heartbeat IPC: 0.632316 cumulative IPC: 0.491038 (Simulation time: 0 hr 39 min 9 sec) 
select_counter is 1022
Heartbeat CPU 0 instructions: 97000002 cycles: 180349914 heartbeat IPC: 0.726375 cumulative IPC: 0.492873 (Simulation time: 0 hr 39 min 27 sec) 
select_counter is 1023
Heartbeat CPU 0 instructions: 98000003 cycles: 181720832 heartbeat IPC: 0.729439 cumulative IPC: 0.494696 (Simulation time: 0 hr 39 min 45 sec) 
select_counter is 1023
Heartbeat CPU 0 instructions: 99000000 cycles: 183088991 heartbeat IPC: 0.730907 cumulative IPC: 0.496499 (Simulation time: 0 hr 40 min 2 sec) 
select_counter is 1023
Heartbeat CPU 0 instructions: 100000000 cycles: 184451245 heartbeat IPC: 0.734078 cumulative IPC: 0.498291 (Simulation time: 0 hr 40 min 19 sec) 
select_counter is 1022
Heartbeat CPU 0 instructions: 101000001 cycles: 185823642 heartbeat IPC: 0.728653 cumulative IPC: 0.500028 (Simulation time: 0 hr 40 min 35 sec) 
select_counter is 1023
Heartbeat CPU 0 instructions: 102000000 cycles: 187201840 heartbeat IPC: 0.725584 cumulative IPC: 0.501724 (Simulation time: 0 hr 40 min 52 sec) 
select_counter is 1023
Heartbeat CPU 0 instructions: 103000002 cycles: 188581293 heartbeat IPC: 0.724926 cumulative IPC: 0.50339 (Simulation time: 0 hr 41 min 8 sec) 
select_counter is 1021
Heartbeat CPU 0 instructions: 104000000 cycles: 189962879 heartbeat IPC: 0.723804 cumulative IPC: 0.505026 (Simulation time: 0 hr 41 min 24 sec) 
select_counter is 1023
Heartbeat CPU 0 instructions: 105000003 cycles: 191334272 heartbeat IPC: 0.729188 cumulative IPC: 0.506666 (Simulation time: 0 hr 41 min 40 sec) 
select_counter is 1022
Heartbeat CPU 0 instructions: 106000002 cycles: 192700507 heartbeat IPC: 0.731938 cumulative IPC: 0.508295 (Simulation time: 0 hr 41 min 57 sec) 
select_counter is 1023
Heartbeat CPU 0 instructions: 107000002 cycles: 194085035 heartbeat IPC: 0.722268 cumulative IPC: 0.509852 (Simulation time: 0 hr 42 min 14 sec) 
select_counter is 1023
Heartbeat CPU 0 instructions: 108000000 cycles: 195464961 heartbeat IPC: 0.724675 cumulative IPC: 0.511399 (Simulation time: 0 hr 42 min 30 sec) 
select_counter is 1023
Heartbeat CPU 0 instructions: 109000001 cycles: 196829034 heartbeat IPC: 0.733099 cumulative IPC: 0.512966 (Simulation time: 0 hr 42 min 46 sec) 
select_counter is 1023
Heartbeat CPU 0 instructions: 110000001 cycles: 198210573 heartbeat IPC: 0.72383 cumulative IPC: 0.514465 (Simulation time: 0 hr 43 min 2 sec) 
select_counter is 1023
Finished CPU 0 instructions: 100000003 cycles: 194376657 cummulative IPC: 0.514465 (Simulation time: 0 hr 43 min 2 sec) 

ChampSim completed all CPUs

Region of Interest Statistics

CPU 0 cummulative IPC: 0.514465 instructions: 100000003 cycles: 194376657
LLC TOTAL     ACCESS:    2445955  HIT:     246948  MISS:    2199007
LLC LOAD      ACCESS:    1321299  HIT:       1141  MISS:    1320158
LLC RFO       ACCESS:     423300  HIT:        229  MISS:     423071
LLC PREFETCH  ACCESS:          0  HIT:          0  MISS:          0
LLC WRITEBACK ACCESS:     701356  HIT:     245578  MISS:     455778
Ship samples: 
15, 38, 87, 122, 132, 164, 207, 254, 266, 310, 339, 359, 387, 423, 454, 503, 536, 574, 599, 617, 668, 702, 735, 755, 783, 818, 848, 879, 898, 954, 977, 992, 1037, 1084, 1092, 1122, 1174, 1201, 1216, 1250, 1293, 1337, 1364, 1384, 1415, 1458, 1472, 1534, 1549, 1588, 1618, 1635, 1667, 1723, 1742, 1772, 1795, 1826, 1874, 1890, 1947, 1970, 1991, 2026, 
Lime duel samples: 
11, 99, 195, 306, 396, 498, 603, 685, 777, 889, 968, 1083, 1169, 1274, 1350, 1457, 1550, 1654, 1731, 1830, 1945, 
Lime samples: 
11, 99, 195, 306, 396, 498, 603, 685, 777, 889, 968, 1083, 1169, 1274, 1350, 1457, 1550, 1654, 1731, 1830, 1945, 
Insertion Distribution: 
	LOAD 0 0 0 0 0 0 1254 36390 
	RFO 0 0 0 0 0 0 723 12280 
	PREF 0 0 0 0 0 0 0 0 
	WRITEBACK 0 0 0 0 0 0 0 21026 
Total Prefetch Downgrades: 0
