
*** ChampSim Multicore Out-of-Order Simulator ***

Warmup Instructions: 10000000
Simulation Instructions: 100000000
Configuration: 1
Number of CPUs: 1
LLC sets: 2048
LLC ways: 16
Off-chip DRAM Channels: 1 Width: 64-bit Data Rate: 1600 MT/s

CPU 0 runs /datasets/cs240c-wi22-a00-public/data/Assignment2-gz/GemsFDTD_712B.trace.gz
Heartbeat CPU 0 instructions: 1000003 cycles: 633083 heartbeat IPC: 1.57958 cumulative IPC: 1.57958 (Simulation time: 0 hr 0 min 31 sec) 
select_counter is 1023
Heartbeat CPU 0 instructions: 2000000 cycles: 1265992 heartbeat IPC: 1.58 cumulative IPC: 1.57979 (Simulation time: 0 hr 1 min 3 sec) 
select_counter is 1023
Heartbeat CPU 0 instructions: 3000000 cycles: 1898457 heartbeat IPC: 1.58112 cumulative IPC: 1.58023 (Simulation time: 0 hr 1 min 37 sec) 
select_counter is 1023
Heartbeat CPU 0 instructions: 4000000 cycles: 2530610 heartbeat IPC: 1.5819 cumulative IPC: 1.58065 (Simulation time: 0 hr 2 min 10 sec) 
select_counter is 1022
Heartbeat CPU 0 instructions: 5000003 cycles: 3162904 heartbeat IPC: 1.58155 cumulative IPC: 1.58083 (Simulation time: 0 hr 2 min 42 sec) 
select_counter is 1022
Heartbeat CPU 0 instructions: 6000002 cycles: 3795254 heartbeat IPC: 1.5814 cumulative IPC: 1.58092 (Simulation time: 0 hr 3 min 16 sec) 
select_counter is 1022
Heartbeat CPU 0 instructions: 7000001 cycles: 4428008 heartbeat IPC: 1.58039 cumulative IPC: 1.58085 (Simulation time: 0 hr 3 min 49 sec) 
select_counter is 1023
Heartbeat CPU 0 instructions: 8000000 cycles: 5060799 heartbeat IPC: 1.5803 cumulative IPC: 1.58078 (Simulation time: 0 hr 4 min 22 sec) 
select_counter is 1023
Heartbeat CPU 0 instructions: 9000001 cycles: 5693472 heartbeat IPC: 1.5806 cumulative IPC: 1.58076 (Simulation time: 0 hr 4 min 54 sec) 
select_counter is 1021
Heartbeat CPU 0 instructions: 10000002 cycles: 6325734 heartbeat IPC: 1.58162 cumulative IPC: 1.58084 (Simulation time: 0 hr 5 min 26 sec) 
select_counter is 1022

Warmup complete CPU 0 instructions: 10000002 cycles: 6325734 (Simulation time: 0 hr 5 min 26 sec) 

Heartbeat CPU 0 instructions: 11000001 cycles: 9445667 heartbeat IPC: 0.320519 cumulative IPC: 0.320519 (Simulation time: 0 hr 6 min 9 sec) 
select_counter is 1021
Heartbeat CPU 0 instructions: 12000000 cycles: 12538668 heartbeat IPC: 0.32331 cumulative IPC: 0.321909 (Simulation time: 0 hr 6 min 53 sec) 
select_counter is 1023
Heartbeat CPU 0 instructions: 13000002 cycles: 15621192 heartbeat IPC: 0.32441 cumulative IPC: 0.322738 (Simulation time: 0 hr 7 min 36 sec) 
select_counter is 1020
Heartbeat CPU 0 instructions: 14000002 cycles: 18684680 heartbeat IPC: 0.326425 cumulative IPC: 0.323652 (Simulation time: 0 hr 8 min 21 sec) 
select_counter is 1023
Heartbeat CPU 0 instructions: 15000001 cycles: 21700606 heartbeat IPC: 0.331573 cumulative IPC: 0.325206 (Simulation time: 0 hr 9 min 6 sec) 
select_counter is 1023
Heartbeat CPU 0 instructions: 16000000 cycles: 24773734 heartbeat IPC: 0.325401 cumulative IPC: 0.325238 (Simulation time: 0 hr 9 min 54 sec) 
select_counter is 1023
Heartbeat CPU 0 instructions: 17000000 cycles: 27829114 heartbeat IPC: 0.327292 cumulative IPC: 0.32553 (Simulation time: 0 hr 10 min 38 sec) 
select_counter is 1023
Heartbeat CPU 0 instructions: 18000001 cycles: 30956387 heartbeat IPC: 0.319768 cumulative IPC: 0.324798 (Simulation time: 0 hr 11 min 23 sec) 
select_counter is 1023
Heartbeat CPU 0 instructions: 19000000 cycles: 33972617 heartbeat IPC: 0.331539 cumulative IPC: 0.325534 (Simulation time: 0 hr 12 min 10 sec) 
select_counter is 1023
Heartbeat CPU 0 instructions: 20000000 cycles: 37023537 heartbeat IPC: 0.32777 cumulative IPC: 0.325756 (Simulation time: 0 hr 12 min 57 sec) 
select_counter is 1023
Heartbeat CPU 0 instructions: 21000003 cycles: 40095389 heartbeat IPC: 0.325538 cumulative IPC: 0.325736 (Simulation time: 0 hr 13 min 46 sec) 
select_counter is 1023
Heartbeat CPU 0 instructions: 22000001 cycles: 43191434 heartbeat IPC: 0.322992 cumulative IPC: 0.325506 (Simulation time: 0 hr 14 min 30 sec) 
select_counter is 1022
Heartbeat CPU 0 instructions: 23000003 cycles: 46196833 heartbeat IPC: 0.332735 cumulative IPC: 0.326051 (Simulation time: 0 hr 15 min 15 sec) 
select_counter is 1023
Heartbeat CPU 0 instructions: 24000000 cycles: 49324540 heartbeat IPC: 0.319722 cumulative IPC: 0.32559 (Simulation time: 0 hr 16 min 1 sec) 
select_counter is 1023
Heartbeat CPU 0 instructions: 25000000 cycles: 52386505 heartbeat IPC: 0.326588 cumulative IPC: 0.325657 (Simulation time: 0 hr 16 min 46 sec) 
select_counter is 1023
Heartbeat CPU 0 instructions: 26000002 cycles: 55458008 heartbeat IPC: 0.325574 cumulative IPC: 0.325652 (Simulation time: 0 hr 17 min 33 sec) 
select_counter is 1023
Heartbeat CPU 0 instructions: 27000002 cycles: 58593059 heartbeat IPC: 0.318974 cumulative IPC: 0.325251 (Simulation time: 0 hr 18 min 22 sec) 
select_counter is 1021
Heartbeat CPU 0 instructions: 28000000 cycles: 61660368 heartbeat IPC: 0.326018 cumulative IPC: 0.325294 (Simulation time: 0 hr 19 min 10 sec) 
select_counter is 1022
Heartbeat CPU 0 instructions: 29000001 cycles: 64711282 heartbeat IPC: 0.327771 cumulative IPC: 0.325423 (Simulation time: 0 hr 19 min 51 sec) 
select_counter is 1023
Heartbeat CPU 0 instructions: 30000002 cycles: 67783419 heartbeat IPC: 0.325507 cumulative IPC: 0.325427 (Simulation time: 0 hr 20 min 35 sec) 
select_counter is 1023
Heartbeat CPU 0 instructions: 31000001 cycles: 70876798 heartbeat IPC: 0.323271 cumulative IPC: 0.325324 (Simulation time: 0 hr 21 min 17 sec) 
select_counter is 1023
Heartbeat CPU 0 instructions: 32000000 cycles: 73981582 heartbeat IPC: 0.322083 cumulative IPC: 0.325175 (Simulation time: 0 hr 21 min 52 sec) 
select_counter is 1022
Heartbeat CPU 0 instructions: 33000000 cycles: 77031262 heartbeat IPC: 0.327903 cumulative IPC: 0.325293 (Simulation time: 0 hr 22 min 25 sec) 
select_counter is 1022
Heartbeat CPU 0 instructions: 34000003 cycles: 80050274 heartbeat IPC: 0.331235 cumulative IPC: 0.325536 (Simulation time: 0 hr 23 min 10 sec) 
select_counter is 1023
Heartbeat CPU 0 instructions: 35000000 cycles: 83142148 heartbeat IPC: 0.323427 cumulative IPC: 0.325451 (Simulation time: 0 hr 23 min 51 sec) 
select_counter is 1023
Heartbeat CPU 0 instructions: 36000000 cycles: 86219356 heartbeat IPC: 0.32497 cumulative IPC: 0.325433 (Simulation time: 0 hr 24 min 32 sec) 
select_counter is 1023
Heartbeat CPU 0 instructions: 37000001 cycles: 89228624 heartbeat IPC: 0.332307 cumulative IPC: 0.325682 (Simulation time: 0 hr 25 min 12 sec) 
select_counter is 1023
Heartbeat CPU 0 instructions: 38000002 cycles: 92279022 heartbeat IPC: 0.327826 cumulative IPC: 0.325758 (Simulation time: 0 hr 25 min 55 sec) 
select_counter is 1023
Heartbeat CPU 0 instructions: 39000000 cycles: 95409046 heartbeat IPC: 0.319486 cumulative IPC: 0.325538 (Simulation time: 0 hr 26 min 37 sec) 
select_counter is 1023
Heartbeat CPU 0 instructions: 40000000 cycles: 98410010 heartbeat IPC: 0.333226 cumulative IPC: 0.325788 (Simulation time: 0 hr 27 min 23 sec) 
select_counter is 1023
Heartbeat CPU 0 instructions: 41000003 cycles: 101455793 heartbeat IPC: 0.328324 cumulative IPC: 0.32587 (Simulation time: 0 hr 28 min 3 sec) 
select_counter is 1023
Heartbeat CPU 0 instructions: 42000000 cycles: 104529382 heartbeat IPC: 0.325352 cumulative IPC: 0.325853 (Simulation time: 0 hr 28 min 47 sec) 
select_counter is 1023
Heartbeat CPU 0 instructions: 43000001 cycles: 107570810 heartbeat IPC: 0.328793 cumulative IPC: 0.325942 (Simulation time: 0 hr 29 min 33 sec) 
select_counter is 1020
Heartbeat CPU 0 instructions: 44000000 cycles: 110603920 heartbeat IPC: 0.329694 cumulative IPC: 0.326051 (Simulation time: 0 hr 30 min 13 sec) 
select_counter is 1021
Heartbeat CPU 0 instructions: 45000003 cycles: 113655260 heartbeat IPC: 0.327726 cumulative IPC: 0.326099 (Simulation time: 0 hr 30 min 53 sec) 
select_counter is 1022
Heartbeat CPU 0 instructions: 46000000 cycles: 116681468 heartbeat IPC: 0.330446 cumulative IPC: 0.326218 (Simulation time: 0 hr 31 min 34 sec) 
select_counter is 1022
Heartbeat CPU 0 instructions: 47000003 cycles: 119736092 heartbeat IPC: 0.327374 cumulative IPC: 0.326249 (Simulation time: 0 hr 32 min 17 sec) 
select_counter is 1021
Heartbeat CPU 0 instructions: 48000000 cycles: 122818456 heartbeat IPC: 0.324425 cumulative IPC: 0.326201 (Simulation time: 0 hr 32 min 57 sec) 
select_counter is 1022
Heartbeat CPU 0 instructions: 49000002 cycles: 125867165 heartbeat IPC: 0.328008 cumulative IPC: 0.326247 (Simulation time: 0 hr 33 min 42 sec) 
select_counter is 1023
Heartbeat CPU 0 instructions: 50000001 cycles: 128922124 heartbeat IPC: 0.327336 cumulative IPC: 0.326274 (Simulation time: 0 hr 34 min 23 sec) 
select_counter is 1023
Heartbeat CPU 0 instructions: 51000002 cycles: 131949690 heartbeat IPC: 0.330299 cumulative IPC: 0.326371 (Simulation time: 0 hr 35 min 4 sec) 
select_counter is 1022
Heartbeat CPU 0 instructions: 52000000 cycles: 134965357 heartbeat IPC: 0.331601 cumulative IPC: 0.326493 (Simulation time: 0 hr 35 min 47 sec) 
select_counter is 1021
Heartbeat CPU 0 instructions: 53000000 cycles: 138069748 heartbeat IPC: 0.322124 cumulative IPC: 0.326391 (Simulation time: 0 hr 36 min 29 sec) 
select_counter is 1022
Heartbeat CPU 0 instructions: 54000000 cycles: 141104483 heartbeat IPC: 0.329518 cumulative IPC: 0.326461 (Simulation time: 0 hr 37 min 8 sec) 
select_counter is 1023
Heartbeat CPU 0 instructions: 55000003 cycles: 144140063 heartbeat IPC: 0.329427 cumulative IPC: 0.326526 (Simulation time: 0 hr 37 min 47 sec) 
select_counter is 1023
Heartbeat CPU 0 instructions: 56000000 cycles: 147231657 heartbeat IPC: 0.323457 cumulative IPC: 0.326459 (Simulation time: 0 hr 38 min 25 sec) 
select_counter is 1021
Heartbeat CPU 0 instructions: 57000000 cycles: 150353739 heartbeat IPC: 0.320299 cumulative IPC: 0.326325 (Simulation time: 0 hr 39 min 4 sec) 
select_counter is 1023
Heartbeat CPU 0 instructions: 58000002 cycles: 153441700 heartbeat IPC: 0.323839 cumulative IPC: 0.326273 (Simulation time: 0 hr 39 min 43 sec) 
select_counter is 1021
Heartbeat CPU 0 instructions: 59000002 cycles: 156500705 heartbeat IPC: 0.326904 cumulative IPC: 0.326286 (Simulation time: 0 hr 40 min 21 sec) 
select_counter is 1023
Heartbeat CPU 0 instructions: 60000000 cycles: 159584211 heartbeat IPC: 0.324306 cumulative IPC: 0.326246 (Simulation time: 0 hr 40 min 59 sec) 
select_counter is 1023
Heartbeat CPU 0 instructions: 61000003 cycles: 162579101 heartbeat IPC: 0.333903 cumulative IPC: 0.326393 (Simulation time: 0 hr 41 min 38 sec) 
select_counter is 1023
Heartbeat CPU 0 instructions: 62000002 cycles: 165654287 heartbeat IPC: 0.325183 cumulative IPC: 0.32637 (Simulation time: 0 hr 42 min 13 sec) 
select_counter is 1023
Heartbeat CPU 0 instructions: 63000001 cycles: 168729740 heartbeat IPC: 0.325155 cumulative IPC: 0.326347 (Simulation time: 0 hr 42 min 43 sec) 
select_counter is 1023
Heartbeat CPU 0 instructions: 64000000 cycles: 171835308 heartbeat IPC: 0.322002 cumulative IPC: 0.326265 (Simulation time: 0 hr 43 min 15 sec) 
select_counter is 1023
Heartbeat CPU 0 instructions: 65000002 cycles: 174916161 heartbeat IPC: 0.324586 cumulative IPC: 0.326234 (Simulation time: 0 hr 43 min 45 sec) 
select_counter is 1023
Heartbeat CPU 0 instructions: 66000002 cycles: 177926549 heartbeat IPC: 0.332183 cumulative IPC: 0.326339 (Simulation time: 0 hr 44 min 14 sec) 
select_counter is 1021
Heartbeat CPU 0 instructions: 67000000 cycles: 180964277 heartbeat IPC: 0.329193 cumulative IPC: 0.326388 (Simulation time: 0 hr 44 min 43 sec) 
select_counter is 1023
Heartbeat CPU 0 instructions: 68000000 cycles: 184011297 heartbeat IPC: 0.32819 cumulative IPC: 0.326419 (Simulation time: 0 hr 45 min 12 sec) 
select_counter is 1023
Heartbeat CPU 0 instructions: 69000001 cycles: 187047987 heartbeat IPC: 0.329306 cumulative IPC: 0.326468 (Simulation time: 0 hr 45 min 36 sec) 
select_counter is 1022
Heartbeat CPU 0 instructions: 70000000 cycles: 190178468 heartbeat IPC: 0.319439 cumulative IPC: 0.326348 (Simulation time: 0 hr 46 min 1 sec) 
select_counter is 1022
Heartbeat CPU 0 instructions: 71000002 cycles: 193206440 heartbeat IPC: 0.330255 cumulative IPC: 0.326411 (Simulation time: 0 hr 46 min 26 sec) 
select_counter is 1023
Heartbeat CPU 0 instructions: 72000000 cycles: 195749545 heartbeat IPC: 0.393219 cumulative IPC: 0.327308 (Simulation time: 0 hr 46 min 50 sec) 
select_counter is 1022
Heartbeat CPU 0 instructions: 73000000 cycles: 198315604 heartbeat IPC: 0.389703 cumulative IPC: 0.328142 (Simulation time: 0 hr 47 min 12 sec) 
select_counter is 1022
Heartbeat CPU 0 instructions: 74000000 cycles: 200908601 heartbeat IPC: 0.385654 cumulative IPC: 0.328909 (Simulation time: 0 hr 47 min 33 sec) 
select_counter is 1023
Heartbeat CPU 0 instructions: 75000003 cycles: 203469501 heartbeat IPC: 0.390489 cumulative IPC: 0.329709 (Simulation time: 0 hr 47 min 51 sec) 
select_counter is 1023
Heartbeat CPU 0 instructions: 76000000 cycles: 206047650 heartbeat IPC: 0.387874 cumulative IPC: 0.330459 (Simulation time: 0 hr 48 min 7 sec) 
select_counter is 1021
Heartbeat CPU 0 instructions: 77000000 cycles: 208620675 heartbeat IPC: 0.388648 cumulative IPC: 0.3312 (Simulation time: 0 hr 48 min 24 sec) 
select_counter is 1023
Heartbeat CPU 0 instructions: 78000000 cycles: 211188085 heartbeat IPC: 0.389498 cumulative IPC: 0.33193 (Simulation time: 0 hr 48 min 40 sec) 
select_counter is 1023
Heartbeat CPU 0 instructions: 79000003 cycles: 213757071 heartbeat IPC: 0.38926 cumulative IPC: 0.33264 (Simulation time: 0 hr 48 min 54 sec) 
select_counter is 1023
Heartbeat CPU 0 instructions: 80000000 cycles: 216349321 heartbeat IPC: 0.385764 cumulative IPC: 0.333296 (Simulation time: 0 hr 49 min 9 sec) 
select_counter is 1023
Heartbeat CPU 0 instructions: 81000001 cycles: 218969523 heartbeat IPC: 0.38165 cumulative IPC: 0.333892 (Simulation time: 0 hr 49 min 25 sec) 
select_counter is 1023
Heartbeat CPU 0 instructions: 82000000 cycles: 221568700 heartbeat IPC: 0.384737 cumulative IPC: 0.334506 (Simulation time: 0 hr 49 min 41 sec) 
select_counter is 1021
Heartbeat CPU 0 instructions: 83000000 cycles: 224190295 heartbeat IPC: 0.381447 cumulative IPC: 0.335071 (Simulation time: 0 hr 49 min 56 sec) 
select_counter is 1023
Heartbeat CPU 0 instructions: 84000000 cycles: 226824061 heartbeat IPC: 0.379684 cumulative IPC: 0.335603 (Simulation time: 0 hr 50 min 10 sec) 
select_counter is 1023
Heartbeat CPU 0 instructions: 85000000 cycles: 229430052 heartbeat IPC: 0.383731 cumulative IPC: 0.336166 (Simulation time: 0 hr 50 min 23 sec) 
select_counter is 1023
Heartbeat CPU 0 instructions: 86000000 cycles: 232017714 heartbeat IPC: 0.386449 cumulative IPC: 0.336742 (Simulation time: 0 hr 50 min 35 sec) 
select_counter is 1023
Heartbeat CPU 0 instructions: 87000001 cycles: 234627693 heartbeat IPC: 0.383145 cumulative IPC: 0.337273 (Simulation time: 0 hr 50 min 48 sec) 
select_counter is 1022
Heartbeat CPU 0 instructions: 88000000 cycles: 237227949 heartbeat IPC: 0.384577 cumulative IPC: 0.337805 (Simulation time: 0 hr 51 min 0 sec) 
select_counter is 1023
Heartbeat CPU 0 instructions: 89000003 cycles: 239860677 heartbeat IPC: 0.379835 cumulative IPC: 0.338279 (Simulation time: 0 hr 51 min 11 sec) 
select_counter is 1022
Heartbeat CPU 0 instructions: 90000000 cycles: 242483874 heartbeat IPC: 0.381213 cumulative IPC: 0.338756 (Simulation time: 0 hr 51 min 21 sec) 
select_counter is 1019
Heartbeat CPU 0 instructions: 91000001 cycles: 245114888 heartbeat IPC: 0.380082 cumulative IPC: 0.339211 (Simulation time: 0 hr 51 min 32 sec) 
select_counter is 1023
Heartbeat CPU 0 instructions: 92000000 cycles: 247765952 heartbeat IPC: 0.377207 cumulative IPC: 0.339629 (Simulation time: 0 hr 51 min 42 sec) 
select_counter is 1023
Heartbeat CPU 0 instructions: 93000003 cycles: 250389015 heartbeat IPC: 0.381235 cumulative IPC: 0.340076 (Simulation time: 0 hr 51 min 51 sec) 
select_counter is 1022
Heartbeat CPU 0 instructions: 94000002 cycles: 252972362 heartbeat IPC: 0.387094 cumulative IPC: 0.340568 (Simulation time: 0 hr 51 min 59 sec) 
select_counter is 1022
Heartbeat CPU 0 instructions: 95000001 cycles: 255631234 heartbeat IPC: 0.376099 cumulative IPC: 0.340947 (Simulation time: 0 hr 52 min 6 sec) 
select_counter is 1022
Heartbeat CPU 0 instructions: 96000000 cycles: 258263386 heartbeat IPC: 0.379917 cumulative IPC: 0.341354 (Simulation time: 0 hr 52 min 12 sec) 
select_counter is 1023
Heartbeat CPU 0 instructions: 97000002 cycles: 260856863 heartbeat IPC: 0.385584 cumulative IPC: 0.341805 (Simulation time: 0 hr 52 min 17 sec) 
select_counter is 1023
Heartbeat CPU 0 instructions: 98000000 cycles: 263440183 heartbeat IPC: 0.387098 cumulative IPC: 0.34226 (Simulation time: 0 hr 52 min 22 sec) 
select_counter is 1022
Heartbeat CPU 0 instructions: 99000001 cycles: 266060954 heartbeat IPC: 0.381567 cumulative IPC: 0.342657 (Simulation time: 0 hr 52 min 26 sec) 
select_counter is 1023
Heartbeat CPU 0 instructions: 100000000 cycles: 268703237 heartbeat IPC: 0.37846 cumulative IPC: 0.343017 (Simulation time: 0 hr 52 min 31 sec) 
select_counter is 1020
Heartbeat CPU 0 instructions: 101000001 cycles: 271295514 heartbeat IPC: 0.385762 cumulative IPC: 0.343435 (Simulation time: 0 hr 52 min 35 sec) 
select_counter is 1023
Heartbeat CPU 0 instructions: 102000002 cycles: 273917319 heartbeat IPC: 0.381417 cumulative IPC: 0.343808 (Simulation time: 0 hr 52 min 39 sec) 
select_counter is 1022
Heartbeat CPU 0 instructions: 103000000 cycles: 276515365 heartbeat IPC: 0.384904 cumulative IPC: 0.344203 (Simulation time: 0 hr 52 min 44 sec) 
select_counter is 1022
Heartbeat CPU 0 instructions: 104000000 cycles: 279140416 heartbeat IPC: 0.380945 cumulative IPC: 0.344556 (Simulation time: 0 hr 52 min 48 sec) 
select_counter is 1023
Heartbeat CPU 0 instructions: 105000000 cycles: 281725812 heartbeat IPC: 0.386788 cumulative IPC: 0.344953 (Simulation time: 0 hr 52 min 52 sec) 
select_counter is 1023
Heartbeat CPU 0 instructions: 106000002 cycles: 284307303 heartbeat IPC: 0.387374 cumulative IPC: 0.345347 (Simulation time: 0 hr 52 min 56 sec) 
select_counter is 1023
Heartbeat CPU 0 instructions: 107000000 cycles: 286920907 heartbeat IPC: 0.382613 cumulative IPC: 0.345694 (Simulation time: 0 hr 53 min 0 sec) 
select_counter is 1023
Heartbeat CPU 0 instructions: 108000000 cycles: 289520610 heartbeat IPC: 0.384659 cumulative IPC: 0.346051 (Simulation time: 0 hr 53 min 4 sec) 
select_counter is 1023
Heartbeat CPU 0 instructions: 109000003 cycles: 292116971 heartbeat IPC: 0.385156 cumulative IPC: 0.346407 (Simulation time: 0 hr 53 min 9 sec) 
select_counter is 1021
Heartbeat CPU 0 instructions: 110000000 cycles: 294757142 heartbeat IPC: 0.378762 cumulative IPC: 0.346703 (Simulation time: 0 hr 53 min 13 sec) 
select_counter is 1022
Finished CPU 0 instructions: 100000000 cycles: 288431416 cummulative IPC: 0.346703 (Simulation time: 0 hr 53 min 13 sec) 

ChampSim completed all CPUs

Region of Interest Statistics

CPU 0 cummulative IPC: 0.346703 instructions: 100000000 cycles: 288431416
LLC TOTAL     ACCESS:    4687825  HIT:     788914  MISS:    3898911
LLC LOAD      ACCESS:    3310953  HIT:     669445  MISS:    2641508
LLC RFO       ACCESS:         20  HIT:          0  MISS:         20
LLC PREFETCH  ACCESS:          0  HIT:          0  MISS:          0
LLC WRITEBACK ACCESS:    1376852  HIT:     119469  MISS:    1257383
Ship samples: 
7, 56, 82, 125, 142, 187, 193, 254, 280, 305, 324, 361, 400, 442, 473, 510, 543, 555, 594, 615, 663, 680, 709, 764, 774, 824, 851, 869, 913, 955, 966, 995, 1038, 1086, 1098, 1134, 1159, 1209, 1244, 1257, 1283, 1324, 1348, 1402, 1425, 1440, 1486, 1533, 1554, 1598, 1600, 1661, 1666, 1716, 1740, 1760, 1823, 1830, 1886, 1913, 1941, 1958, 2013, 2016, 
Lime duel samples: 
12, 121, 219, 288, 410, 487, 600, 674, 797, 866, 971, 1070, 1153, 1269, 1366, 1461, 1565, 1644, 1758, 1836, 1935, 
Lime samples: 
12, 121, 219, 288, 410, 487, 600, 674, 797, 866, 971, 1070, 1153, 1269, 1366, 1461, 1565, 1644, 1758, 1836, 1935, 
Insertion Distribution: 
	LOAD 24812 0 0 0 0 0 2978 63651 
	RFO 0 0 0 0 0 0 0 0 
	PREF 0 0 0 0 0 0 0 0 
	WRITEBACK 0 0 0 0 0 0 0 43688 
Total Prefetch Downgrades: 0
