
*** ChampSim Multicore Out-of-Order Simulator ***

Warmup Instructions: 10000000
Simulation Instructions: 100000000
Configuration: 1
Number of CPUs: 1
LLC sets: 2048
LLC ways: 16
Off-chip DRAM Channels: 1 Width: 64-bit Data Rate: 1600 MT/s

CPU 0 runs /datasets/cs240c-wi22-a00-public/data/Assignment2-gz/zeusmp_600B.trace.gz
Heartbeat CPU 0 instructions: 1000000 cycles: 407507 heartbeat IPC: 2.45395 cumulative IPC: 2.45395 (Simulation time: 0 hr 0 min 22 sec) 
select_counter is 596
Heartbeat CPU 0 instructions: 2000001 cycles: 814374 heartbeat IPC: 2.45781 cumulative IPC: 2.45588 (Simulation time: 0 hr 0 min 43 sec) 
select_counter is 657
Heartbeat CPU 0 instructions: 3000003 cycles: 1221893 heartbeat IPC: 2.45388 cumulative IPC: 2.45521 (Simulation time: 0 hr 1 min 5 sec) 
select_counter is 730
Heartbeat CPU 0 instructions: 4000000 cycles: 1629601 heartbeat IPC: 2.45273 cumulative IPC: 2.45459 (Simulation time: 0 hr 1 min 26 sec) 
select_counter is 798
Heartbeat CPU 0 instructions: 5000001 cycles: 2037319 heartbeat IPC: 2.45268 cumulative IPC: 2.45421 (Simulation time: 0 hr 1 min 47 sec) 
select_counter is 871
Heartbeat CPU 0 instructions: 6000000 cycles: 2444583 heartbeat IPC: 2.45541 cumulative IPC: 2.45441 (Simulation time: 0 hr 2 min 8 sec) 
select_counter is 937
Heartbeat CPU 0 instructions: 7000000 cycles: 2852187 heartbeat IPC: 2.45336 cumulative IPC: 2.45426 (Simulation time: 0 hr 2 min 28 sec) 
select_counter is 1000
Heartbeat CPU 0 instructions: 8000000 cycles: 3259757 heartbeat IPC: 2.45357 cumulative IPC: 2.45417 (Simulation time: 0 hr 2 min 49 sec) 
select_counter is 1022
Heartbeat CPU 0 instructions: 9000003 cycles: 3666904 heartbeat IPC: 2.45612 cumulative IPC: 2.45439 (Simulation time: 0 hr 3 min 10 sec) 
select_counter is 1022
Heartbeat CPU 0 instructions: 10000001 cycles: 4074512 heartbeat IPC: 2.45333 cumulative IPC: 2.45428 (Simulation time: 0 hr 3 min 31 sec) 
select_counter is 1023

Warmup complete CPU 0 instructions: 10000001 cycles: 4074512 (Simulation time: 0 hr 3 min 31 sec) 

Heartbeat CPU 0 instructions: 11000000 cycles: 4947976 heartbeat IPC: 1.14487 cumulative IPC: 1.14487 (Simulation time: 0 hr 3 min 56 sec) 
select_counter is 1023
Heartbeat CPU 0 instructions: 12000000 cycles: 5816635 heartbeat IPC: 1.1512 cumulative IPC: 1.14802 (Simulation time: 0 hr 4 min 20 sec) 
select_counter is 1023
Heartbeat CPU 0 instructions: 13000001 cycles: 6690716 heartbeat IPC: 1.14406 cumulative IPC: 1.1467 (Simulation time: 0 hr 4 min 46 sec) 
select_counter is 1020
Heartbeat CPU 0 instructions: 14000001 cycles: 7567200 heartbeat IPC: 1.14092 cumulative IPC: 1.14525 (Simulation time: 0 hr 5 min 12 sec) 
select_counter is 1023
Heartbeat CPU 0 instructions: 15000003 cycles: 8441666 heartbeat IPC: 1.14356 cumulative IPC: 1.14491 (Simulation time: 0 hr 5 min 38 sec) 
select_counter is 1023
Heartbeat CPU 0 instructions: 16000000 cycles: 9380407 heartbeat IPC: 1.06525 cumulative IPC: 1.13082 (Simulation time: 0 hr 6 min 5 sec) 
select_counter is 1023
Heartbeat CPU 0 instructions: 17000001 cycles: 10376975 heartbeat IPC: 1.00344 cumulative IPC: 1.11068 (Simulation time: 0 hr 6 min 32 sec) 
select_counter is 1023
Heartbeat CPU 0 instructions: 18000003 cycles: 11367472 heartbeat IPC: 1.0096 cumulative IPC: 1.09695 (Simulation time: 0 hr 6 min 58 sec) 
select_counter is 1023
Heartbeat CPU 0 instructions: 19000000 cycles: 12346715 heartbeat IPC: 1.02119 cumulative IPC: 1.08798 (Simulation time: 0 hr 7 min 22 sec) 
select_counter is 1023
Heartbeat CPU 0 instructions: 20000000 cycles: 13328026 heartbeat IPC: 1.01904 cumulative IPC: 1.08067 (Simulation time: 0 hr 7 min 46 sec) 
select_counter is 1023
Heartbeat CPU 0 instructions: 21000002 cycles: 14324873 heartbeat IPC: 1.00317 cumulative IPC: 1.07313 (Simulation time: 0 hr 8 min 11 sec) 
select_counter is 1023
Heartbeat CPU 0 instructions: 22000000 cycles: 15298047 heartbeat IPC: 1.02756 cumulative IPC: 1.06918 (Simulation time: 0 hr 8 min 36 sec) 
select_counter is 1022
Heartbeat CPU 0 instructions: 23000000 cycles: 16280214 heartbeat IPC: 1.01816 cumulative IPC: 1.06508 (Simulation time: 0 hr 9 min 1 sec) 
select_counter is 1022
Heartbeat CPU 0 instructions: 24000000 cycles: 17259235 heartbeat IPC: 1.02143 cumulative IPC: 1.06183 (Simulation time: 0 hr 9 min 24 sec) 
select_counter is 1023
Heartbeat CPU 0 instructions: 25000000 cycles: 18233461 heartbeat IPC: 1.02646 cumulative IPC: 1.0594 (Simulation time: 0 hr 9 min 49 sec) 
select_counter is 1023
Heartbeat CPU 0 instructions: 26000000 cycles: 19209509 heartbeat IPC: 1.02454 cumulative IPC: 1.05715 (Simulation time: 0 hr 10 min 13 sec) 
select_counter is 1023
Heartbeat CPU 0 instructions: 27000003 cycles: 20181281 heartbeat IPC: 1.02905 cumulative IPC: 1.05546 (Simulation time: 0 hr 10 min 36 sec) 
select_counter is 1023
Heartbeat CPU 0 instructions: 28000000 cycles: 21179973 heartbeat IPC: 1.00131 cumulative IPC: 1.0523 (Simulation time: 0 hr 10 min 58 sec) 
select_counter is 1023
Heartbeat CPU 0 instructions: 29000000 cycles: 22159464 heartbeat IPC: 1.02094 cumulative IPC: 1.0506 (Simulation time: 0 hr 11 min 22 sec) 
select_counter is 1023
Heartbeat CPU 0 instructions: 30000003 cycles: 23148865 heartbeat IPC: 1.01072 cumulative IPC: 1.04853 (Simulation time: 0 hr 11 min 46 sec) 
select_counter is 1023
Heartbeat CPU 0 instructions: 31000002 cycles: 24138205 heartbeat IPC: 1.01077 cumulative IPC: 1.04667 (Simulation time: 0 hr 12 min 12 sec) 
select_counter is 1022
Heartbeat CPU 0 instructions: 32000000 cycles: 25105659 heartbeat IPC: 1.03364 cumulative IPC: 1.04607 (Simulation time: 0 hr 12 min 38 sec) 
select_counter is 1022
Heartbeat CPU 0 instructions: 33000001 cycles: 26094801 heartbeat IPC: 1.01098 cumulative IPC: 1.04449 (Simulation time: 0 hr 13 min 2 sec) 
select_counter is 1022
Heartbeat CPU 0 instructions: 34000000 cycles: 27081027 heartbeat IPC: 1.01397 cumulative IPC: 1.04318 (Simulation time: 0 hr 13 min 26 sec) 
select_counter is 1023
Heartbeat CPU 0 instructions: 35000003 cycles: 28053160 heartbeat IPC: 1.02867 cumulative IPC: 1.04259 (Simulation time: 0 hr 13 min 51 sec) 
select_counter is 1023
Heartbeat CPU 0 instructions: 36000000 cycles: 29021290 heartbeat IPC: 1.03292 cumulative IPC: 1.04222 (Simulation time: 0 hr 14 min 15 sec) 
select_counter is 1023
Heartbeat CPU 0 instructions: 37000001 cycles: 30012666 heartbeat IPC: 1.0087 cumulative IPC: 1.04094 (Simulation time: 0 hr 14 min 38 sec) 
select_counter is 1023
Heartbeat CPU 0 instructions: 38000000 cycles: 30997358 heartbeat IPC: 1.01555 cumulative IPC: 1.04001 (Simulation time: 0 hr 15 min 1 sec) 
select_counter is 1022
Heartbeat CPU 0 instructions: 39000002 cycles: 31984305 heartbeat IPC: 1.01323 cumulative IPC: 1.03906 (Simulation time: 0 hr 15 min 22 sec) 
select_counter is 1023
Heartbeat CPU 0 instructions: 40000000 cycles: 32958380 heartbeat IPC: 1.02661 cumulative IPC: 1.03864 (Simulation time: 0 hr 15 min 45 sec) 
select_counter is 1022
Heartbeat CPU 0 instructions: 41000002 cycles: 33941398 heartbeat IPC: 1.01728 cumulative IPC: 1.03794 (Simulation time: 0 hr 16 min 9 sec) 
select_counter is 1023
Heartbeat CPU 0 instructions: 42000000 cycles: 34930493 heartbeat IPC: 1.01102 cumulative IPC: 1.03708 (Simulation time: 0 hr 16 min 30 sec) 
select_counter is 1022
Heartbeat CPU 0 instructions: 43000002 cycles: 35915455 heartbeat IPC: 1.01527 cumulative IPC: 1.0364 (Simulation time: 0 hr 16 min 51 sec) 
select_counter is 1023
Heartbeat CPU 0 instructions: 44000000 cycles: 36887989 heartbeat IPC: 1.02824 cumulative IPC: 1.03616 (Simulation time: 0 hr 17 min 13 sec) 
select_counter is 1023
Heartbeat CPU 0 instructions: 45000000 cycles: 37870833 heartbeat IPC: 1.01746 cumulative IPC: 1.03562 (Simulation time: 0 hr 17 min 34 sec) 
select_counter is 1023
Heartbeat CPU 0 instructions: 46000000 cycles: 38849218 heartbeat IPC: 1.02209 cumulative IPC: 1.03524 (Simulation time: 0 hr 17 min 55 sec) 
select_counter is 1020
Heartbeat CPU 0 instructions: 47000003 cycles: 39851213 heartbeat IPC: 0.998012 cumulative IPC: 1.03419 (Simulation time: 0 hr 18 min 17 sec) 
select_counter is 1023
Heartbeat CPU 0 instructions: 48000000 cycles: 40842706 heartbeat IPC: 1.00858 cumulative IPC: 1.0335 (Simulation time: 0 hr 18 min 38 sec) 
select_counter is 1023
Heartbeat CPU 0 instructions: 49000000 cycles: 41818563 heartbeat IPC: 1.02474 cumulative IPC: 1.03328 (Simulation time: 0 hr 18 min 58 sec) 
select_counter is 1023
Heartbeat CPU 0 instructions: 50000001 cycles: 42788309 heartbeat IPC: 1.0312 cumulative IPC: 1.03322 (Simulation time: 0 hr 19 min 21 sec) 
select_counter is 1022
Heartbeat CPU 0 instructions: 51000001 cycles: 43783458 heartbeat IPC: 1.00487 cumulative IPC: 1.03251 (Simulation time: 0 hr 19 min 43 sec) 
select_counter is 1023
Heartbeat CPU 0 instructions: 52000000 cycles: 44744959 heartbeat IPC: 1.04004 cumulative IPC: 1.03269 (Simulation time: 0 hr 20 min 4 sec) 
select_counter is 1023
Heartbeat CPU 0 instructions: 53000000 cycles: 45732257 heartbeat IPC: 1.01287 cumulative IPC: 1.03222 (Simulation time: 0 hr 20 min 25 sec) 
select_counter is 1023
Heartbeat CPU 0 instructions: 54000000 cycles: 46723028 heartbeat IPC: 1.00932 cumulative IPC: 1.03169 (Simulation time: 0 hr 20 min 48 sec) 
select_counter is 1023
Heartbeat CPU 0 instructions: 55000001 cycles: 47693895 heartbeat IPC: 1.03001 cumulative IPC: 1.03165 (Simulation time: 0 hr 21 min 8 sec) 
select_counter is 1023
Heartbeat CPU 0 instructions: 56000000 cycles: 48680328 heartbeat IPC: 1.01375 cumulative IPC: 1.03126 (Simulation time: 0 hr 21 min 27 sec) 
select_counter is 1023
Heartbeat CPU 0 instructions: 57000003 cycles: 49669343 heartbeat IPC: 1.01111 cumulative IPC: 1.03082 (Simulation time: 0 hr 21 min 46 sec) 
select_counter is 1022
Heartbeat CPU 0 instructions: 58000001 cycles: 50629002 heartbeat IPC: 1.04203 cumulative IPC: 1.03105 (Simulation time: 0 hr 22 min 4 sec) 
select_counter is 1023
Heartbeat CPU 0 instructions: 59000000 cycles: 51611685 heartbeat IPC: 1.01762 cumulative IPC: 1.03077 (Simulation time: 0 hr 22 min 23 sec) 
select_counter is 1023
Heartbeat CPU 0 instructions: 60000000 cycles: 52600868 heartbeat IPC: 1.01094 cumulative IPC: 1.03037 (Simulation time: 0 hr 22 min 43 sec) 
select_counter is 1022
Heartbeat CPU 0 instructions: 61000003 cycles: 53586554 heartbeat IPC: 1.01452 cumulative IPC: 1.03005 (Simulation time: 0 hr 23 min 1 sec) 
select_counter is 1023
Heartbeat CPU 0 instructions: 62000001 cycles: 54580591 heartbeat IPC: 1.006 cumulative IPC: 1.02958 (Simulation time: 0 hr 23 min 21 sec) 
select_counter is 1023
Heartbeat CPU 0 instructions: 63000000 cycles: 55560378 heartbeat IPC: 1.02063 cumulative IPC: 1.02941 (Simulation time: 0 hr 23 min 39 sec) 
select_counter is 1023
Heartbeat CPU 0 instructions: 64000000 cycles: 56531814 heartbeat IPC: 1.0294 cumulative IPC: 1.02941 (Simulation time: 0 hr 23 min 59 sec) 
select_counter is 1023
Heartbeat CPU 0 instructions: 65000001 cycles: 57527296 heartbeat IPC: 1.00454 cumulative IPC: 1.02895 (Simulation time: 0 hr 24 min 19 sec) 
select_counter is 1023
Heartbeat CPU 0 instructions: 66000000 cycles: 58517403 heartbeat IPC: 1.00999 cumulative IPC: 1.0286 (Simulation time: 0 hr 24 min 39 sec) 
select_counter is 1020
Heartbeat CPU 0 instructions: 67000001 cycles: 59514362 heartbeat IPC: 1.00305 cumulative IPC: 1.02814 (Simulation time: 0 hr 25 min 0 sec) 
select_counter is 1023
Heartbeat CPU 0 instructions: 68000000 cycles: 60493786 heartbeat IPC: 1.02101 cumulative IPC: 1.02802 (Simulation time: 0 hr 25 min 19 sec) 
select_counter is 1023
Heartbeat CPU 0 instructions: 69000002 cycles: 61485566 heartbeat IPC: 1.00829 cumulative IPC: 1.02768 (Simulation time: 0 hr 25 min 40 sec) 
select_counter is 1023
Heartbeat CPU 0 instructions: 70000000 cycles: 62477618 heartbeat IPC: 1.00801 cumulative IPC: 1.02734 (Simulation time: 0 hr 25 min 59 sec) 
select_counter is 1022
Heartbeat CPU 0 instructions: 71000001 cycles: 63473334 heartbeat IPC: 1.0043 cumulative IPC: 1.02696 (Simulation time: 0 hr 26 min 19 sec) 
select_counter is 1023
Heartbeat CPU 0 instructions: 72000000 cycles: 64455533 heartbeat IPC: 1.01812 cumulative IPC: 1.02681 (Simulation time: 0 hr 26 min 40 sec) 
select_counter is 1022
Heartbeat CPU 0 instructions: 73000003 cycles: 65434655 heartbeat IPC: 1.02133 cumulative IPC: 1.02673 (Simulation time: 0 hr 27 min 0 sec) 
select_counter is 1023
Heartbeat CPU 0 instructions: 74000002 cycles: 66426112 heartbeat IPC: 1.00862 cumulative IPC: 1.02644 (Simulation time: 0 hr 27 min 20 sec) 
select_counter is 1023
Heartbeat CPU 0 instructions: 75000003 cycles: 67413272 heartbeat IPC: 1.01301 cumulative IPC: 1.02623 (Simulation time: 0 hr 27 min 39 sec) 
select_counter is 1023
Heartbeat CPU 0 instructions: 76000000 cycles: 68404848 heartbeat IPC: 1.00849 cumulative IPC: 1.02595 (Simulation time: 0 hr 27 min 58 sec) 
select_counter is 1023
Heartbeat CPU 0 instructions: 77000000 cycles: 69382002 heartbeat IPC: 1.02338 cumulative IPC: 1.02592 (Simulation time: 0 hr 28 min 16 sec) 
select_counter is 1022
Heartbeat CPU 0 instructions: 78000003 cycles: 70356456 heartbeat IPC: 1.02622 cumulative IPC: 1.02592 (Simulation time: 0 hr 28 min 35 sec) 
select_counter is 1022
Heartbeat CPU 0 instructions: 79000000 cycles: 71342606 heartbeat IPC: 1.01404 cumulative IPC: 1.02575 (Simulation time: 0 hr 28 min 55 sec) 
select_counter is 1023
Heartbeat CPU 0 instructions: 80000000 cycles: 72333157 heartbeat IPC: 1.00954 cumulative IPC: 1.02551 (Simulation time: 0 hr 29 min 13 sec) 
select_counter is 1023
Heartbeat CPU 0 instructions: 81000002 cycles: 73315272 heartbeat IPC: 1.01821 cumulative IPC: 1.02541 (Simulation time: 0 hr 29 min 33 sec) 
select_counter is 1023
Heartbeat CPU 0 instructions: 82000002 cycles: 74291490 heartbeat IPC: 1.02436 cumulative IPC: 1.02539 (Simulation time: 0 hr 29 min 53 sec) 
select_counter is 1023
Heartbeat CPU 0 instructions: 83000001 cycles: 75273048 heartbeat IPC: 1.01879 cumulative IPC: 1.0253 (Simulation time: 0 hr 30 min 12 sec) 
select_counter is 1023
Heartbeat CPU 0 instructions: 84000000 cycles: 76260338 heartbeat IPC: 1.01287 cumulative IPC: 1.02513 (Simulation time: 0 hr 30 min 31 sec) 
select_counter is 1023
Heartbeat CPU 0 instructions: 85000000 cycles: 77243103 heartbeat IPC: 1.01754 cumulative IPC: 1.02503 (Simulation time: 0 hr 30 min 50 sec) 
select_counter is 1023
Heartbeat CPU 0 instructions: 86000002 cycles: 78226302 heartbeat IPC: 1.01709 cumulative IPC: 1.02492 (Simulation time: 0 hr 31 min 10 sec) 
select_counter is 1023
Heartbeat CPU 0 instructions: 87000000 cycles: 79207257 heartbeat IPC: 1.01941 cumulative IPC: 1.02485 (Simulation time: 0 hr 31 min 29 sec) 
select_counter is 1023
Heartbeat CPU 0 instructions: 88000000 cycles: 80195148 heartbeat IPC: 1.01226 cumulative IPC: 1.02469 (Simulation time: 0 hr 31 min 48 sec) 
select_counter is 1023
Heartbeat CPU 0 instructions: 89000002 cycles: 81172250 heartbeat IPC: 1.02344 cumulative IPC: 1.02467 (Simulation time: 0 hr 32 min 8 sec) 
select_counter is 1022
Heartbeat CPU 0 instructions: 90000002 cycles: 82142465 heartbeat IPC: 1.0307 cumulative IPC: 1.02475 (Simulation time: 0 hr 32 min 26 sec) 
select_counter is 1023
Heartbeat CPU 0 instructions: 91000001 cycles: 83122635 heartbeat IPC: 1.02023 cumulative IPC: 1.02469 (Simulation time: 0 hr 32 min 45 sec) 
select_counter is 1023
Heartbeat CPU 0 instructions: 92000000 cycles: 84122415 heartbeat IPC: 1.00022 cumulative IPC: 1.02439 (Simulation time: 0 hr 33 min 5 sec) 
select_counter is 1023
Heartbeat CPU 0 instructions: 93000000 cycles: 85093142 heartbeat IPC: 1.03016 cumulative IPC: 1.02446 (Simulation time: 0 hr 33 min 24 sec) 
select_counter is 1022
Heartbeat CPU 0 instructions: 94000002 cycles: 86055175 heartbeat IPC: 1.03947 cumulative IPC: 1.02463 (Simulation time: 0 hr 33 min 43 sec) 
select_counter is 1023
Heartbeat CPU 0 instructions: 95000001 cycles: 87029917 heartbeat IPC: 1.02591 cumulative IPC: 1.02465 (Simulation time: 0 hr 34 min 2 sec) 
select_counter is 1023
Heartbeat CPU 0 instructions: 96000000 cycles: 87998141 heartbeat IPC: 1.03282 cumulative IPC: 1.02474 (Simulation time: 0 hr 34 min 23 sec) 
select_counter is 1023
Heartbeat CPU 0 instructions: 97000003 cycles: 88952402 heartbeat IPC: 1.04793 cumulative IPC: 1.025 (Simulation time: 0 hr 34 min 42 sec) 
select_counter is 1023
Heartbeat CPU 0 instructions: 98000002 cycles: 89918599 heartbeat IPC: 1.03498 cumulative IPC: 1.02511 (Simulation time: 0 hr 35 min 2 sec) 
select_counter is 1023
Heartbeat CPU 0 instructions: 99000000 cycles: 90906537 heartbeat IPC: 1.01221 cumulative IPC: 1.02497 (Simulation time: 0 hr 35 min 21 sec) 
select_counter is 1023
Heartbeat CPU 0 instructions: 100000000 cycles: 91874303 heartbeat IPC: 1.03331 cumulative IPC: 1.02506 (Simulation time: 0 hr 35 min 40 sec) 
select_counter is 1023
Heartbeat CPU 0 instructions: 101000002 cycles: 92839640 heartbeat IPC: 1.03591 cumulative IPC: 1.02518 (Simulation time: 0 hr 36 min 1 sec) 
select_counter is 1022
Heartbeat CPU 0 instructions: 102000002 cycles: 93826538 heartbeat IPC: 1.01328 cumulative IPC: 1.02505 (Simulation time: 0 hr 36 min 20 sec) 
select_counter is 1022
Heartbeat CPU 0 instructions: 103000001 cycles: 94807121 heartbeat IPC: 1.0198 cumulative IPC: 1.02499 (Simulation time: 0 hr 36 min 38 sec) 
select_counter is 1023
Heartbeat CPU 0 instructions: 104000000 cycles: 95789127 heartbeat IPC: 1.01832 cumulative IPC: 1.02492 (Simulation time: 0 hr 36 min 57 sec) 
select_counter is 1022
Heartbeat CPU 0 instructions: 105000001 cycles: 96775036 heartbeat IPC: 1.01429 cumulative IPC: 1.02481 (Simulation time: 0 hr 37 min 17 sec) 
select_counter is 1022
Heartbeat CPU 0 instructions: 106000000 cycles: 97754450 heartbeat IPC: 1.02102 cumulative IPC: 1.02477 (Simulation time: 0 hr 37 min 35 sec) 
select_counter is 1022
Heartbeat CPU 0 instructions: 107000000 cycles: 98732440 heartbeat IPC: 1.02251 cumulative IPC: 1.02474 (Simulation time: 0 hr 37 min 53 sec) 
select_counter is 1022
Heartbeat CPU 0 instructions: 108000000 cycles: 99706587 heartbeat IPC: 1.02654 cumulative IPC: 1.02476 (Simulation time: 0 hr 38 min 15 sec) 
select_counter is 1023
Heartbeat CPU 0 instructions: 109000000 cycles: 100693613 heartbeat IPC: 1.01314 cumulative IPC: 1.02464 (Simulation time: 0 hr 38 min 35 sec) 
select_counter is 1023
Heartbeat CPU 0 instructions: 110000002 cycles: 101678155 heartbeat IPC: 1.0157 cumulative IPC: 1.02455 (Simulation time: 0 hr 38 min 54 sec) 
select_counter is 1023
Finished CPU 0 instructions: 100000001 cycles: 97603643 cummulative IPC: 1.02455 (Simulation time: 0 hr 38 min 54 sec) 

ChampSim completed all CPUs

Region of Interest Statistics

CPU 0 cummulative IPC: 1.02455 instructions: 100000001 cycles: 97603643
LLC TOTAL     ACCESS:     381989  HIT:      54870  MISS:     327119
LLC LOAD      ACCESS:     315489  HIT:       3003  MISS:     312486
LLC RFO       ACCESS:       3447  HIT:          1  MISS:       3446
LLC PREFETCH  ACCESS:          0  HIT:          0  MISS:          0
LLC WRITEBACK ACCESS:      63053  HIT:      51866  MISS:      11187
Ship samples: 
1, 43, 78, 101, 138, 176, 205, 244, 263, 298, 351, 356, 410, 441, 470, 496, 533, 568, 588, 625, 666, 679, 726, 764, 795, 805, 839, 877, 910, 931, 966, 1000, 1043, 1071, 1116, 1131, 1159, 1213, 1230, 1277, 1289, 1336, 1373, 1388, 1415, 1465, 1480, 1526, 1547, 1584, 1618, 1655, 1664, 1702, 1752, 1760, 1812, 1855, 1884, 1892, 1930, 1958, 2009, 2022, 
Lime duel samples: 
7, 112, 203, 304, 399, 485, 579, 673, 774, 885, 979, 1067, 1182, 1251, 1374, 1471, 1555, 1646, 1743, 1848, 1924, 
Lime samples: 
7, 112, 203, 304, 399, 485, 579, 673, 774, 885, 979, 1067, 1182, 1251, 1374, 1471, 1555, 1646, 1743, 1848, 1924, 
Insertion Distribution: 
	LOAD 243 0 0 0 0 0 995 9268 
	RFO 0 0 0 0 0 0 141 163 
	PREF 0 0 0 0 0 0 0 0 
	WRITEBACK 0 0 0 0 0 0 0 1682 
Total Prefetch Downgrades: 0
