
*** ChampSim Multicore Out-of-Order Simulator ***

Warmup Instructions: 10000000
Simulation Instructions: 100000000
Configuration: 1
Number of CPUs: 1
LLC sets: 2048
LLC ways: 16
Off-chip DRAM Channels: 1 Width: 64-bit Data Rate: 1600 MT/s

CPU 0 runs /datasets/cs240c-wi22-a00-public/data/Assignment2-gz/leslie3d_1116B.trace.gz
Heartbeat CPU 0 instructions: 1000001 cycles: 532936 heartbeat IPC: 1.8764 cumulative IPC: 1.8764 (Simulation time: 0 hr 0 min 27 sec) 
select_counter is 892
Heartbeat CPU 0 instructions: 2000003 cycles: 1066398 heartbeat IPC: 1.87455 cumulative IPC: 1.87548 (Simulation time: 0 hr 0 min 57 sec) 
select_counter is 1023
Heartbeat CPU 0 instructions: 3000003 cycles: 1600517 heartbeat IPC: 1.87224 cumulative IPC: 1.8744 (Simulation time: 0 hr 1 min 29 sec) 
select_counter is 1022
Heartbeat CPU 0 instructions: 4000000 cycles: 2133408 heartbeat IPC: 1.87655 cumulative IPC: 1.87493 (Simulation time: 0 hr 2 min 2 sec) 
select_counter is 1023
Heartbeat CPU 0 instructions: 5000001 cycles: 2666051 heartbeat IPC: 1.87743 cumulative IPC: 1.87543 (Simulation time: 0 hr 2 min 32 sec) 
select_counter is 1023
Heartbeat CPU 0 instructions: 6000001 cycles: 3199228 heartbeat IPC: 1.87555 cumulative IPC: 1.87545 (Simulation time: 0 hr 3 min 2 sec) 
select_counter is 1023
Heartbeat CPU 0 instructions: 7000001 cycles: 3732616 heartbeat IPC: 1.87481 cumulative IPC: 1.87536 (Simulation time: 0 hr 3 min 32 sec) 
select_counter is 1023
Heartbeat CPU 0 instructions: 8000000 cycles: 4266340 heartbeat IPC: 1.87363 cumulative IPC: 1.87514 (Simulation time: 0 hr 4 min 1 sec) 
select_counter is 1021
Heartbeat CPU 0 instructions: 9000003 cycles: 4798994 heartbeat IPC: 1.8774 cumulative IPC: 1.87539 (Simulation time: 0 hr 4 min 29 sec) 
select_counter is 1023
Heartbeat CPU 0 instructions: 10000001 cycles: 5331762 heartbeat IPC: 1.87699 cumulative IPC: 1.87555 (Simulation time: 0 hr 4 min 59 sec) 
select_counter is 1023

Warmup complete CPU 0 instructions: 10000001 cycles: 5331762 (Simulation time: 0 hr 4 min 59 sec) 

Heartbeat CPU 0 instructions: 11000001 cycles: 6931416 heartbeat IPC: 0.625135 cumulative IPC: 0.625135 (Simulation time: 0 hr 5 min 34 sec) 
select_counter is 1019
Heartbeat CPU 0 instructions: 12000000 cycles: 8508379 heartbeat IPC: 0.63413 cumulative IPC: 0.6296 (Simulation time: 0 hr 6 min 11 sec) 
select_counter is 1023
Heartbeat CPU 0 instructions: 13000001 cycles: 10070549 heartbeat IPC: 0.640136 cumulative IPC: 0.633073 (Simulation time: 0 hr 6 min 45 sec) 
select_counter is 1023
Heartbeat CPU 0 instructions: 14000003 cycles: 11623771 heartbeat IPC: 0.643824 cumulative IPC: 0.635727 (Simulation time: 0 hr 7 min 22 sec) 
select_counter is 1023
Heartbeat CPU 0 instructions: 15000000 cycles: 13174686 heartbeat IPC: 0.644779 cumulative IPC: 0.637517 (Simulation time: 0 hr 7 min 55 sec) 
select_counter is 1023
Heartbeat CPU 0 instructions: 16000000 cycles: 14679971 heartbeat IPC: 0.664326 cumulative IPC: 0.641834 (Simulation time: 0 hr 8 min 31 sec) 
select_counter is 1023
Heartbeat CPU 0 instructions: 17000003 cycles: 16109170 heartbeat IPC: 0.699695 cumulative IPC: 0.649507 (Simulation time: 0 hr 9 min 7 sec) 
select_counter is 1022
Heartbeat CPU 0 instructions: 18000001 cycles: 17615855 heartbeat IPC: 0.663707 cumulative IPC: 0.651249 (Simulation time: 0 hr 9 min 41 sec) 
select_counter is 1023
Heartbeat CPU 0 instructions: 19000001 cycles: 19112769 heartbeat IPC: 0.668041 cumulative IPC: 0.653073 (Simulation time: 0 hr 10 min 16 sec) 
select_counter is 1023
Heartbeat CPU 0 instructions: 20000000 cycles: 20557818 heartbeat IPC: 0.692017 cumulative IPC: 0.656769 (Simulation time: 0 hr 10 min 50 sec) 
select_counter is 1023
Heartbeat CPU 0 instructions: 21000000 cycles: 22046126 heartbeat IPC: 0.671904 cumulative IPC: 0.658117 (Simulation time: 0 hr 11 min 26 sec) 
select_counter is 1023
Heartbeat CPU 0 instructions: 22000000 cycles: 23515664 heartbeat IPC: 0.680486 cumulative IPC: 0.659924 (Simulation time: 0 hr 12 min 3 sec) 
select_counter is 1022
Heartbeat CPU 0 instructions: 23000003 cycles: 25025051 heartbeat IPC: 0.662523 cumulative IPC: 0.660123 (Simulation time: 0 hr 12 min 39 sec) 
select_counter is 1022
Heartbeat CPU 0 instructions: 24000000 cycles: 26484451 heartbeat IPC: 0.685211 cumulative IPC: 0.661854 (Simulation time: 0 hr 13 min 10 sec) 
select_counter is 1023
Heartbeat CPU 0 instructions: 25000002 cycles: 27939373 heartbeat IPC: 0.687323 cumulative IPC: 0.663493 (Simulation time: 0 hr 13 min 44 sec) 
select_counter is 1023
Heartbeat CPU 0 instructions: 26000002 cycles: 29490637 heartbeat IPC: 0.644636 cumulative IPC: 0.662283 (Simulation time: 0 hr 14 min 22 sec) 
select_counter is 1023
Heartbeat CPU 0 instructions: 27000001 cycles: 30994612 heartbeat IPC: 0.664904 cumulative IPC: 0.662436 (Simulation time: 0 hr 14 min 59 sec) 
select_counter is 1022
Heartbeat CPU 0 instructions: 28000000 cycles: 32449602 heartbeat IPC: 0.687289 cumulative IPC: 0.66377 (Simulation time: 0 hr 15 min 30 sec) 
select_counter is 1023
Heartbeat CPU 0 instructions: 29000001 cycles: 33930091 heartbeat IPC: 0.675453 cumulative IPC: 0.664374 (Simulation time: 0 hr 16 min 4 sec) 
select_counter is 1022
Heartbeat CPU 0 instructions: 30000002 cycles: 35454857 heartbeat IPC: 0.655839 cumulative IPC: 0.663942 (Simulation time: 0 hr 16 min 37 sec) 
select_counter is 1023
Heartbeat CPU 0 instructions: 31000001 cycles: 36949339 heartbeat IPC: 0.669128 cumulative IPC: 0.664187 (Simulation time: 0 hr 17 min 13 sec) 
select_counter is 1023
Heartbeat CPU 0 instructions: 32000000 cycles: 38426463 heartbeat IPC: 0.676991 cumulative IPC: 0.664759 (Simulation time: 0 hr 17 min 50 sec) 
select_counter is 1022
Heartbeat CPU 0 instructions: 33000002 cycles: 39927669 heartbeat IPC: 0.666132 cumulative IPC: 0.664819 (Simulation time: 0 hr 18 min 25 sec) 
select_counter is 1023
Heartbeat CPU 0 instructions: 34000002 cycles: 41368688 heartbeat IPC: 0.693953 cumulative IPC: 0.665984 (Simulation time: 0 hr 19 min 2 sec) 
select_counter is 1023
Heartbeat CPU 0 instructions: 35000000 cycles: 42853158 heartbeat IPC: 0.67364 cumulative IPC: 0.666286 (Simulation time: 0 hr 19 min 36 sec) 
select_counter is 1022
Heartbeat CPU 0 instructions: 36000000 cycles: 44338426 heartbeat IPC: 0.673279 cumulative IPC: 0.666553 (Simulation time: 0 hr 20 min 6 sec) 
select_counter is 1022
Heartbeat CPU 0 instructions: 37000003 cycles: 46063870 heartbeat IPC: 0.579563 cumulative IPC: 0.662868 (Simulation time: 0 hr 20 min 37 sec) 
select_counter is 1023
Heartbeat CPU 0 instructions: 38000003 cycles: 48247515 heartbeat IPC: 0.45795 cumulative IPC: 0.652441 (Simulation time: 0 hr 21 min 11 sec) 
select_counter is 1022
Heartbeat CPU 0 instructions: 39000003 cycles: 50317920 heartbeat IPC: 0.482997 cumulative IPC: 0.644643 (Simulation time: 0 hr 21 min 43 sec) 
select_counter is 1023
Heartbeat CPU 0 instructions: 40000000 cycles: 52406629 heartbeat IPC: 0.478763 cumulative IPC: 0.637283 (Simulation time: 0 hr 22 min 12 sec) 
select_counter is 1023
Heartbeat CPU 0 instructions: 41000002 cycles: 54466071 heartbeat IPC: 0.485569 cumulative IPC: 0.630924 (Simulation time: 0 hr 22 min 51 sec) 
select_counter is 1023
Heartbeat CPU 0 instructions: 42000001 cycles: 56565343 heartbeat IPC: 0.476355 cumulative IPC: 0.62459 (Simulation time: 0 hr 23 min 26 sec) 
select_counter is 1023
Heartbeat CPU 0 instructions: 43000003 cycles: 58641684 heartbeat IPC: 0.481617 cumulative IPC: 0.619022 (Simulation time: 0 hr 24 min 0 sec) 
select_counter is 1022
Heartbeat CPU 0 instructions: 44000000 cycles: 60736435 heartbeat IPC: 0.477382 cumulative IPC: 0.613667 (Simulation time: 0 hr 24 min 35 sec) 
select_counter is 1023
Heartbeat CPU 0 instructions: 45000002 cycles: 62764418 heartbeat IPC: 0.493102 cumulative IPC: 0.609409 (Simulation time: 0 hr 25 min 9 sec) 
select_counter is 1023
Heartbeat CPU 0 instructions: 46000002 cycles: 64708121 heartbeat IPC: 0.514482 cumulative IPC: 0.606302 (Simulation time: 0 hr 25 min 43 sec) 
select_counter is 1023
Heartbeat CPU 0 instructions: 47000001 cycles: 66673229 heartbeat IPC: 0.508877 cumulative IPC: 0.603181 (Simulation time: 0 hr 26 min 20 sec) 
select_counter is 1022
Heartbeat CPU 0 instructions: 48000000 cycles: 68632559 heartbeat IPC: 0.510378 cumulative IPC: 0.600308 (Simulation time: 0 hr 26 min 54 sec) 
select_counter is 1023
Heartbeat CPU 0 instructions: 49000002 cycles: 71304085 heartbeat IPC: 0.374319 cumulative IPC: 0.591157 (Simulation time: 0 hr 27 min 32 sec) 
select_counter is 1021
Heartbeat CPU 0 instructions: 50000000 cycles: 74211853 heartbeat IPC: 0.343906 cumulative IPC: 0.580719 (Simulation time: 0 hr 28 min 11 sec) 
select_counter is 1023
Heartbeat CPU 0 instructions: 51000003 cycles: 77056591 heartbeat IPC: 0.351527 cumulative IPC: 0.571629 (Simulation time: 0 hr 28 min 50 sec) 
select_counter is 1022
Heartbeat CPU 0 instructions: 52000000 cycles: 79983745 heartbeat IPC: 0.341628 cumulative IPC: 0.562611 (Simulation time: 0 hr 29 min 28 sec) 
select_counter is 1023
Heartbeat CPU 0 instructions: 53000003 cycles: 83117291 heartbeat IPC: 0.319128 cumulative IPC: 0.552802 (Simulation time: 0 hr 30 min 9 sec) 
select_counter is 1022
Heartbeat CPU 0 instructions: 54000000 cycles: 87270196 heartbeat IPC: 0.240795 cumulative IPC: 0.536989 (Simulation time: 0 hr 30 min 59 sec) 
select_counter is 1023
Heartbeat CPU 0 instructions: 55000002 cycles: 91332444 heartbeat IPC: 0.24617 cumulative IPC: 0.523252 (Simulation time: 0 hr 31 min 48 sec) 
select_counter is 1023
Heartbeat CPU 0 instructions: 56000000 cycles: 95430844 heartbeat IPC: 0.243997 cumulative IPC: 0.510549 (Simulation time: 0 hr 32 min 40 sec) 
select_counter is 1021
Heartbeat CPU 0 instructions: 57000002 cycles: 99426312 heartbeat IPC: 0.250284 cumulative IPC: 0.499498 (Simulation time: 0 hr 33 min 32 sec) 
select_counter is 1023
Heartbeat CPU 0 instructions: 58000001 cycles: 103280447 heartbeat IPC: 0.259461 cumulative IPC: 0.490053 (Simulation time: 0 hr 34 min 15 sec) 
select_counter is 1023
Heartbeat CPU 0 instructions: 59000000 cycles: 105355601 heartbeat IPC: 0.481891 cumulative IPC: 0.489883 (Simulation time: 0 hr 34 min 54 sec) 
select_counter is 1023
Heartbeat CPU 0 instructions: 60000000 cycles: 107431725 heartbeat IPC: 0.481667 cumulative IPC: 0.489716 (Simulation time: 0 hr 35 min 38 sec) 
select_counter is 1023
Heartbeat CPU 0 instructions: 61000001 cycles: 109489273 heartbeat IPC: 0.486016 cumulative IPC: 0.489643 (Simulation time: 0 hr 36 min 15 sec) 
select_counter is 1023
Heartbeat CPU 0 instructions: 62000002 cycles: 111497334 heartbeat IPC: 0.497993 cumulative IPC: 0.489801 (Simulation time: 0 hr 36 min 50 sec) 
select_counter is 1023
Heartbeat CPU 0 instructions: 63000003 cycles: 113595628 heartbeat IPC: 0.476578 cumulative IPC: 0.489545 (Simulation time: 0 hr 37 min 30 sec) 
select_counter is 1023
Heartbeat CPU 0 instructions: 64000000 cycles: 115685825 heartbeat IPC: 0.478422 cumulative IPC: 0.489334 (Simulation time: 0 hr 38 min 5 sec) 
select_counter is 1023
Heartbeat CPU 0 instructions: 65000001 cycles: 117776087 heartbeat IPC: 0.478409 cumulative IPC: 0.489131 (Simulation time: 0 hr 38 min 43 sec) 
select_counter is 1023
Heartbeat CPU 0 instructions: 66000000 cycles: 119781890 heartbeat IPC: 0.498553 cumulative IPC: 0.489296 (Simulation time: 0 hr 39 min 19 sec) 
select_counter is 1023
Heartbeat CPU 0 instructions: 67000001 cycles: 121798298 heartbeat IPC: 0.495932 cumulative IPC: 0.489411 (Simulation time: 0 hr 39 min 51 sec) 
select_counter is 1022
Heartbeat CPU 0 instructions: 68000000 cycles: 123814263 heartbeat IPC: 0.49604 cumulative IPC: 0.489524 (Simulation time: 0 hr 40 min 20 sec) 
select_counter is 1023
Heartbeat CPU 0 instructions: 69000003 cycles: 125809468 heartbeat IPC: 0.501203 cumulative IPC: 0.489717 (Simulation time: 0 hr 40 min 50 sec) 
select_counter is 1023
Heartbeat CPU 0 instructions: 70000000 cycles: 127726868 heartbeat IPC: 0.521538 cumulative IPC: 0.490216 (Simulation time: 0 hr 41 min 18 sec) 
select_counter is 1023
Heartbeat CPU 0 instructions: 71000002 cycles: 129617948 heartbeat IPC: 0.528799 cumulative IPC: 0.490803 (Simulation time: 0 hr 41 min 47 sec) 
select_counter is 1023
Heartbeat CPU 0 instructions: 72000000 cycles: 131612285 heartbeat IPC: 0.501419 cumulative IPC: 0.49097 (Simulation time: 0 hr 42 min 13 sec) 
select_counter is 1023
Heartbeat CPU 0 instructions: 73000000 cycles: 133440866 heartbeat IPC: 0.546872 cumulative IPC: 0.491768 (Simulation time: 0 hr 42 min 41 sec) 
select_counter is 1023
Heartbeat CPU 0 instructions: 74000000 cycles: 135313145 heartbeat IPC: 0.534108 cumulative IPC: 0.492378 (Simulation time: 0 hr 43 min 8 sec) 
select_counter is 1023
Heartbeat CPU 0 instructions: 75000002 cycles: 137343141 heartbeat IPC: 0.492613 cumulative IPC: 0.492382 (Simulation time: 0 hr 43 min 30 sec) 
select_counter is 1023
Heartbeat CPU 0 instructions: 76000000 cycles: 139180414 heartbeat IPC: 0.544284 cumulative IPC: 0.493094 (Simulation time: 0 hr 43 min 57 sec) 
select_counter is 1023
Heartbeat CPU 0 instructions: 77000001 cycles: 140971796 heartbeat IPC: 0.558229 cumulative IPC: 0.493954 (Simulation time: 0 hr 44 min 22 sec) 
select_counter is 1023
Heartbeat CPU 0 instructions: 78000000 cycles: 142851047 heartbeat IPC: 0.532126 cumulative IPC: 0.494476 (Simulation time: 0 hr 44 min 48 sec) 
select_counter is 1023
Heartbeat CPU 0 instructions: 79000000 cycles: 144762206 heartbeat IPC: 0.523243 cumulative IPC: 0.49487 (Simulation time: 0 hr 45 min 11 sec) 
select_counter is 1023
Heartbeat CPU 0 instructions: 80000000 cycles: 146571357 heartbeat IPC: 0.552745 cumulative IPC: 0.495612 (Simulation time: 0 hr 45 min 34 sec) 
select_counter is 1023
Heartbeat CPU 0 instructions: 81000002 cycles: 148415923 heartbeat IPC: 0.542134 cumulative IPC: 0.496211 (Simulation time: 0 hr 45 min 57 sec) 
select_counter is 1023
Heartbeat CPU 0 instructions: 82000000 cycles: 150422547 heartbeat IPC: 0.498348 cumulative IPC: 0.496241 (Simulation time: 0 hr 46 min 19 sec) 
select_counter is 1023
Heartbeat CPU 0 instructions: 83000003 cycles: 152280804 heartbeat IPC: 0.53814 cumulative IPC: 0.496771 (Simulation time: 0 hr 46 min 41 sec) 
select_counter is 1023
Heartbeat CPU 0 instructions: 84000000 cycles: 154101128 heartbeat IPC: 0.549351 cumulative IPC: 0.497414 (Simulation time: 0 hr 47 min 1 sec) 
select_counter is 1023
Heartbeat CPU 0 instructions: 85000003 cycles: 156080834 heartbeat IPC: 0.505127 cumulative IPC: 0.497515 (Simulation time: 0 hr 47 min 20 sec) 
select_counter is 1023
Heartbeat CPU 0 instructions: 86000002 cycles: 157935317 heartbeat IPC: 0.539233 cumulative IPC: 0.498022 (Simulation time: 0 hr 47 min 38 sec) 
select_counter is 1023
Heartbeat CPU 0 instructions: 87000001 cycles: 159759200 heartbeat IPC: 0.54828 cumulative IPC: 0.498616 (Simulation time: 0 hr 47 min 52 sec) 
select_counter is 1023
Heartbeat CPU 0 instructions: 88000000 cycles: 161595680 heartbeat IPC: 0.544519 cumulative IPC: 0.499156 (Simulation time: 0 hr 48 min 6 sec) 
select_counter is 1023
Heartbeat CPU 0 instructions: 89000002 cycles: 163577803 heartbeat IPC: 0.504511 cumulative IPC: 0.499223 (Simulation time: 0 hr 48 min 19 sec) 
select_counter is 1023
Heartbeat CPU 0 instructions: 90000001 cycles: 165404680 heartbeat IPC: 0.547382 cumulative IPC: 0.499772 (Simulation time: 0 hr 48 min 33 sec) 
select_counter is 1023
Heartbeat CPU 0 instructions: 91000000 cycles: 167252761 heartbeat IPC: 0.541101 cumulative IPC: 0.500244 (Simulation time: 0 hr 48 min 47 sec) 
select_counter is 1023
Heartbeat CPU 0 instructions: 92000000 cycles: 169278418 heartbeat IPC: 0.493667 cumulative IPC: 0.500163 (Simulation time: 0 hr 48 min 59 sec) 
select_counter is 1023
Heartbeat CPU 0 instructions: 93000002 cycles: 171098359 heartbeat IPC: 0.549469 cumulative IPC: 0.500704 (Simulation time: 0 hr 49 min 12 sec) 
select_counter is 1023
Heartbeat CPU 0 instructions: 94000003 cycles: 172952688 heartbeat IPC: 0.539279 cumulative IPC: 0.501131 (Simulation time: 0 hr 49 min 26 sec) 
select_counter is 1021
Heartbeat CPU 0 instructions: 95000003 cycles: 174903622 heartbeat IPC: 0.512575 cumulative IPC: 0.501262 (Simulation time: 0 hr 49 min 40 sec) 
select_counter is 1023
Heartbeat CPU 0 instructions: 96000000 cycles: 176841685 heartbeat IPC: 0.515978 cumulative IPC: 0.501429 (Simulation time: 0 hr 49 min 54 sec) 
select_counter is 1023
Heartbeat CPU 0 instructions: 97000000 cycles: 178634071 heartbeat IPC: 0.557916 cumulative IPC: 0.502013 (Simulation time: 0 hr 50 min 6 sec) 
select_counter is 1022
Heartbeat CPU 0 instructions: 98000000 cycles: 180496872 heartbeat IPC: 0.536826 cumulative IPC: 0.502383 (Simulation time: 0 hr 50 min 17 sec) 
select_counter is 1023
Heartbeat CPU 0 instructions: 99000003 cycles: 182493857 heartbeat IPC: 0.500756 cumulative IPC: 0.502365 (Simulation time: 0 hr 50 min 28 sec) 
select_counter is 1023
Heartbeat CPU 0 instructions: 100000000 cycles: 184296157 heartbeat IPC: 0.554845 cumulative IPC: 0.502893 (Simulation time: 0 hr 50 min 38 sec) 
select_counter is 1023
Heartbeat CPU 0 instructions: 101000001 cycles: 186120682 heartbeat IPC: 0.548088 cumulative IPC: 0.503349 (Simulation time: 0 hr 50 min 48 sec) 
select_counter is 1023
Heartbeat CPU 0 instructions: 102000003 cycles: 188126271 heartbeat IPC: 0.498608 cumulative IPC: 0.503297 (Simulation time: 0 hr 50 min 58 sec) 
select_counter is 1023
Heartbeat CPU 0 instructions: 103000000 cycles: 189929617 heartbeat IPC: 0.554523 cumulative IPC: 0.503798 (Simulation time: 0 hr 51 min 8 sec) 
select_counter is 1023
Heartbeat CPU 0 instructions: 104000000 cycles: 191757764 heartbeat IPC: 0.547002 cumulative IPC: 0.504221 (Simulation time: 0 hr 51 min 17 sec) 
select_counter is 1023
Heartbeat CPU 0 instructions: 105000002 cycles: 193584115 heartbeat IPC: 0.547541 cumulative IPC: 0.504642 (Simulation time: 0 hr 51 min 25 sec) 
select_counter is 1022
Heartbeat CPU 0 instructions: 106000003 cycles: 195879017 heartbeat IPC: 0.435749 cumulative IPC: 0.503812 (Simulation time: 0 hr 51 min 34 sec) 
select_counter is 1022
Heartbeat CPU 0 instructions: 107000002 cycles: 198132739 heartbeat IPC: 0.44371 cumulative IPC: 0.50311 (Simulation time: 0 hr 51 min 43 sec) 
select_counter is 1022
Heartbeat CPU 0 instructions: 108000000 cycles: 200457797 heartbeat IPC: 0.430096 cumulative IPC: 0.502239 (Simulation time: 0 hr 51 min 51 sec) 
select_counter is 1022
Heartbeat CPU 0 instructions: 109000003 cycles: 202643844 heartbeat IPC: 0.457448 cumulative IPC: 0.501743 (Simulation time: 0 hr 51 min 57 sec) 
select_counter is 1023
Heartbeat CPU 0 instructions: 110000003 cycles: 204993784 heartbeat IPC: 0.425543 cumulative IPC: 0.500846 (Simulation time: 0 hr 52 min 4 sec) 
select_counter is 1023
Finished CPU 0 instructions: 100000002 cycles: 199662022 cummulative IPC: 0.500846 (Simulation time: 0 hr 52 min 4 sec) 

ChampSim completed all CPUs

Region of Interest Statistics

CPU 0 cummulative IPC: 0.500846 instructions: 100000002 cycles: 199662022
LLC TOTAL     ACCESS:    3572654  HIT:    1092480  MISS:    2480174
LLC LOAD      ACCESS:    2180500  HIT:     484498  MISS:    1696002
LLC RFO       ACCESS:     629124  HIT:     112128  MISS:     516996
LLC PREFETCH  ACCESS:          0  HIT:          0  MISS:          0
LLC WRITEBACK ACCESS:     763030  HIT:     495854  MISS:     267176
Ship samples: 
14, 63, 93, 98, 154, 172, 195, 255, 287, 319, 342, 364, 410, 444, 458, 501, 528, 571, 595, 620, 651, 694, 721, 764, 776, 801, 838, 870, 917, 956, 976, 1015, 1030, 1069, 1104, 1127, 1169, 1194, 1234, 1268, 1282, 1337, 1346, 1385, 1409, 1462, 1495, 1522, 1536, 1591, 1625, 1645, 1691, 1710, 1758, 1768, 1815, 1832, 1856, 1904, 1943, 1971, 2003, 2028, 
Lime duel samples: 
26, 126, 200, 306, 391, 494, 589, 696, 785, 877, 991, 1075, 1180, 1254, 1352, 1445, 1565, 1662, 1741, 1825, 1921, 
Lime samples: 
26, 126, 200, 306, 391, 494, 589, 696, 785, 877, 991, 1075, 1180, 1254, 1352, 1445, 1565, 1662, 1741, 1825, 1921, 
Insertion Distribution: 
	LOAD 1830 0 0 0 0 0 3361 56295 
	RFO 0 0 0 0 0 0 491 15710 
	PREF 0 0 0 0 0 0 0 0 
	WRITEBACK 0 0 0 0 0 0 0 18206 
Total Prefetch Downgrades: 0
