
*** ChampSim Multicore Out-of-Order Simulator ***

Warmup Instructions: 10000000
Simulation Instructions: 100000000
Configuration: 1
Number of CPUs: 1
LLC sets: 2048
LLC ways: 16
Off-chip DRAM Channels: 1 Width: 64-bit Data Rate: 1600 MT/s

CPU 0 runs /datasets/cs240c-wi22-a00-public/data/Assignment2-gz/leslie3d_1186B.trace.gz
Heartbeat CPU 0 instructions: 1000002 cycles: 557793 heartbeat IPC: 1.79278 cumulative IPC: 1.79278 (Simulation time: 0 hr 0 min 29 sec) 
select_counter is 1022
Heartbeat CPU 0 instructions: 2000000 cycles: 1204525 heartbeat IPC: 1.54623 cumulative IPC: 1.66041 (Simulation time: 0 hr 1 min 6 sec) 
select_counter is 1023
Heartbeat CPU 0 instructions: 3000000 cycles: 1851614 heartbeat IPC: 1.54538 cumulative IPC: 1.62021 (Simulation time: 0 hr 1 min 40 sec) 
select_counter is 1023
Heartbeat CPU 0 instructions: 4000000 cycles: 2452484 heartbeat IPC: 1.66425 cumulative IPC: 1.631 (Simulation time: 0 hr 2 min 14 sec) 
select_counter is 1023
Heartbeat CPU 0 instructions: 5000000 cycles: 3058528 heartbeat IPC: 1.65005 cumulative IPC: 1.63477 (Simulation time: 0 hr 2 min 48 sec) 
select_counter is 1023
Heartbeat CPU 0 instructions: 6000000 cycles: 3705839 heartbeat IPC: 1.54485 cumulative IPC: 1.61907 (Simulation time: 0 hr 3 min 23 sec) 
select_counter is 1023
Heartbeat CPU 0 instructions: 7000001 cycles: 4352898 heartbeat IPC: 1.54546 cumulative IPC: 1.60812 (Simulation time: 0 hr 3 min 57 sec) 
select_counter is 1023
Heartbeat CPU 0 instructions: 8000000 cycles: 4912250 heartbeat IPC: 1.78778 cumulative IPC: 1.62858 (Simulation time: 0 hr 4 min 29 sec) 
select_counter is 1020
Heartbeat CPU 0 instructions: 9000003 cycles: 5559537 heartbeat IPC: 1.54491 cumulative IPC: 1.61884 (Simulation time: 0 hr 5 min 2 sec) 
select_counter is 1021
Heartbeat CPU 0 instructions: 10000001 cycles: 6206961 heartbeat IPC: 1.54458 cumulative IPC: 1.61109 (Simulation time: 0 hr 5 min 35 sec) 
select_counter is 1023

Warmup complete CPU 0 instructions: 10000001 cycles: 6206961 (Simulation time: 0 hr 5 min 35 sec) 

Heartbeat CPU 0 instructions: 11000001 cycles: 8194583 heartbeat IPC: 0.503114 cumulative IPC: 0.503114 (Simulation time: 0 hr 6 min 11 sec) 
select_counter is 1023
Heartbeat CPU 0 instructions: 12000000 cycles: 10085909 heartbeat IPC: 0.528729 cumulative IPC: 0.515603 (Simulation time: 0 hr 6 min 50 sec) 
select_counter is 1022
Heartbeat CPU 0 instructions: 13000000 cycles: 11903621 heartbeat IPC: 0.550142 cumulative IPC: 0.526624 (Simulation time: 0 hr 7 min 28 sec) 
select_counter is 1022
Heartbeat CPU 0 instructions: 14000000 cycles: 13814686 heartbeat IPC: 0.523268 cumulative IPC: 0.525781 (Simulation time: 0 hr 8 min 6 sec) 
select_counter is 1023
Heartbeat CPU 0 instructions: 15000002 cycles: 15783356 heartbeat IPC: 0.507958 cumulative IPC: 0.522117 (Simulation time: 0 hr 8 min 45 sec) 
select_counter is 1023
Heartbeat CPU 0 instructions: 16000000 cycles: 17605113 heartbeat IPC: 0.54892 cumulative IPC: 0.526401 (Simulation time: 0 hr 9 min 25 sec) 
select_counter is 1023
Heartbeat CPU 0 instructions: 17000000 cycles: 19446791 heartbeat IPC: 0.542983 cumulative IPC: 0.528708 (Simulation time: 0 hr 10 min 5 sec) 
select_counter is 1023
Heartbeat CPU 0 instructions: 18000003 cycles: 21439270 heartbeat IPC: 0.501889 cumulative IPC: 0.5252 (Simulation time: 0 hr 10 min 46 sec) 
select_counter is 1023
Heartbeat CPU 0 instructions: 19000002 cycles: 23261293 heartbeat IPC: 0.54884 cumulative IPC: 0.527725 (Simulation time: 0 hr 11 min 22 sec) 
select_counter is 1023
Heartbeat CPU 0 instructions: 20000000 cycles: 25100010 heartbeat IPC: 0.543856 cumulative IPC: 0.529295 (Simulation time: 0 hr 12 min 3 sec) 
select_counter is 1023
Heartbeat CPU 0 instructions: 21000002 cycles: 27008965 heartbeat IPC: 0.523848 cumulative IPC: 0.528795 (Simulation time: 0 hr 12 min 41 sec) 
select_counter is 1023
Heartbeat CPU 0 instructions: 22000003 cycles: 28937293 heartbeat IPC: 0.518584 cumulative IPC: 0.527929 (Simulation time: 0 hr 13 min 18 sec) 
select_counter is 1023
Heartbeat CPU 0 instructions: 23000002 cycles: 30763206 heartbeat IPC: 0.547671 cumulative IPC: 0.529397 (Simulation time: 0 hr 13 min 55 sec) 
select_counter is 1023
Heartbeat CPU 0 instructions: 24000000 cycles: 32588246 heartbeat IPC: 0.547932 cumulative IPC: 0.530679 (Simulation time: 0 hr 14 min 34 sec) 
select_counter is 1023
Heartbeat CPU 0 instructions: 25000000 cycles: 34562634 heartbeat IPC: 0.506486 cumulative IPC: 0.528995 (Simulation time: 0 hr 15 min 11 sec) 
select_counter is 1023
Heartbeat CPU 0 instructions: 26000002 cycles: 36349383 heartbeat IPC: 0.559677 cumulative IPC: 0.530813 (Simulation time: 0 hr 15 min 49 sec) 
select_counter is 1023
Heartbeat CPU 0 instructions: 27000000 cycles: 38166171 heartbeat IPC: 0.550421 cumulative IPC: 0.531928 (Simulation time: 0 hr 16 min 26 sec) 
select_counter is 1023
Heartbeat CPU 0 instructions: 28000000 cycles: 40140353 heartbeat IPC: 0.506539 cumulative IPC: 0.530451 (Simulation time: 0 hr 17 min 2 sec) 
select_counter is 1023
Heartbeat CPU 0 instructions: 29000002 cycles: 41984829 heartbeat IPC: 0.542161 cumulative IPC: 0.531055 (Simulation time: 0 hr 17 min 41 sec) 
select_counter is 1023
Heartbeat CPU 0 instructions: 30000002 cycles: 43827692 heartbeat IPC: 0.542634 cumulative IPC: 0.531622 (Simulation time: 0 hr 18 min 21 sec) 
select_counter is 1023
Heartbeat CPU 0 instructions: 31000001 cycles: 45668681 heartbeat IPC: 0.543186 cumulative IPC: 0.532161 (Simulation time: 0 hr 19 min 1 sec) 
select_counter is 1021
Heartbeat CPU 0 instructions: 32000000 cycles: 47634363 heartbeat IPC: 0.508729 cumulative IPC: 0.531049 (Simulation time: 0 hr 19 min 39 sec) 
select_counter is 1023
Heartbeat CPU 0 instructions: 33000000 cycles: 49484675 heartbeat IPC: 0.540449 cumulative IPC: 0.531451 (Simulation time: 0 hr 20 min 13 sec) 
select_counter is 1022
Heartbeat CPU 0 instructions: 34000000 cycles: 51292253 heartbeat IPC: 0.553226 cumulative IPC: 0.532324 (Simulation time: 0 hr 20 min 46 sec) 
select_counter is 1023
Heartbeat CPU 0 instructions: 35000002 cycles: 53293354 heartbeat IPC: 0.499726 cumulative IPC: 0.530939 (Simulation time: 0 hr 21 min 20 sec) 
select_counter is 1023
Heartbeat CPU 0 instructions: 36000000 cycles: 55149022 heartbeat IPC: 0.538888 cumulative IPC: 0.53124 (Simulation time: 0 hr 21 min 54 sec) 
select_counter is 1022
Heartbeat CPU 0 instructions: 37000003 cycles: 56990531 heartbeat IPC: 0.543035 cumulative IPC: 0.531668 (Simulation time: 0 hr 22 min 29 sec) 
select_counter is 1022
Heartbeat CPU 0 instructions: 38000001 cycles: 58903463 heartbeat IPC: 0.522757 cumulative IPC: 0.531345 (Simulation time: 0 hr 23 min 4 sec) 
select_counter is 1023
Heartbeat CPU 0 instructions: 39000001 cycles: 60820443 heartbeat IPC: 0.521654 cumulative IPC: 0.531004 (Simulation time: 0 hr 23 min 38 sec) 
select_counter is 1022
Heartbeat CPU 0 instructions: 40000000 cycles: 62660834 heartbeat IPC: 0.543362 cumulative IPC: 0.531407 (Simulation time: 0 hr 24 min 18 sec) 
select_counter is 1022
Heartbeat CPU 0 instructions: 41000000 cycles: 64455919 heartbeat IPC: 0.557077 cumulative IPC: 0.532198 (Simulation time: 0 hr 24 min 53 sec) 
select_counter is 1023
Heartbeat CPU 0 instructions: 42000000 cycles: 66450027 heartbeat IPC: 0.501477 cumulative IPC: 0.531181 (Simulation time: 0 hr 25 min 28 sec) 
select_counter is 1023
Heartbeat CPU 0 instructions: 43000002 cycles: 68198322 heartbeat IPC: 0.571987 cumulative IPC: 0.532332 (Simulation time: 0 hr 26 min 5 sec) 
select_counter is 1023
Heartbeat CPU 0 instructions: 44000000 cycles: 69986628 heartbeat IPC: 0.559187 cumulative IPC: 0.533085 (Simulation time: 0 hr 26 min 48 sec) 
select_counter is 1023
Heartbeat CPU 0 instructions: 45000001 cycles: 72019699 heartbeat IPC: 0.491867 cumulative IPC: 0.531812 (Simulation time: 0 hr 27 min 25 sec) 
select_counter is 1023
Heartbeat CPU 0 instructions: 46000001 cycles: 74335362 heartbeat IPC: 0.431842 cumulative IPC: 0.528414 (Simulation time: 0 hr 28 min 0 sec) 
select_counter is 1022
Heartbeat CPU 0 instructions: 47000002 cycles: 76770799 heartbeat IPC: 0.410604 cumulative IPC: 0.524348 (Simulation time: 0 hr 28 min 40 sec) 
select_counter is 1023
Heartbeat CPU 0 instructions: 48000000 cycles: 78879987 heartbeat IPC: 0.474115 cumulative IPC: 0.52289 (Simulation time: 0 hr 29 min 16 sec) 
select_counter is 1023
Heartbeat CPU 0 instructions: 49000002 cycles: 81210360 heartbeat IPC: 0.429117 cumulative IPC: 0.519976 (Simulation time: 0 hr 29 min 55 sec) 
select_counter is 1023
Heartbeat CPU 0 instructions: 50000002 cycles: 83446868 heartbeat IPC: 0.447126 cumulative IPC: 0.517867 (Simulation time: 0 hr 30 min 35 sec) 
select_counter is 1023
Heartbeat CPU 0 instructions: 51000002 cycles: 85669612 heartbeat IPC: 0.449894 cumulative IPC: 0.515966 (Simulation time: 0 hr 31 min 13 sec) 
select_counter is 1022
Heartbeat CPU 0 instructions: 52000000 cycles: 87754744 heartbeat IPC: 0.479585 cumulative IPC: 0.515035 (Simulation time: 0 hr 31 min 46 sec) 
select_counter is 1022
Heartbeat CPU 0 instructions: 53000003 cycles: 90004959 heartbeat IPC: 0.444403 cumulative IPC: 0.513139 (Simulation time: 0 hr 32 min 23 sec) 
select_counter is 1023
Heartbeat CPU 0 instructions: 54000003 cycles: 92112162 heartbeat IPC: 0.474563 cumulative IPC: 0.512193 (Simulation time: 0 hr 33 min 3 sec) 
select_counter is 1023
Heartbeat CPU 0 instructions: 55000001 cycles: 94426372 heartbeat IPC: 0.432112 cumulative IPC: 0.510092 (Simulation time: 0 hr 33 min 39 sec) 
select_counter is 1022
Heartbeat CPU 0 instructions: 56000000 cycles: 97278908 heartbeat IPC: 0.350565 cumulative IPC: 0.505095 (Simulation time: 0 hr 34 min 18 sec) 
select_counter is 1023
Heartbeat CPU 0 instructions: 57000003 cycles: 100097745 heartbeat IPC: 0.354757 cumulative IPC: 0.500582 (Simulation time: 0 hr 34 min 56 sec) 
select_counter is 1022
Heartbeat CPU 0 instructions: 58000001 cycles: 103028377 heartbeat IPC: 0.341223 cumulative IPC: 0.495758 (Simulation time: 0 hr 35 min 35 sec) 
select_counter is 1023
Heartbeat CPU 0 instructions: 59000003 cycles: 106695945 heartbeat IPC: 0.272661 cumulative IPC: 0.487616 (Simulation time: 0 hr 36 min 21 sec) 
select_counter is 1023
Heartbeat CPU 0 instructions: 60000000 cycles: 110753923 heartbeat IPC: 0.246427 cumulative IPC: 0.478254 (Simulation time: 0 hr 37 min 6 sec) 
select_counter is 1023
Heartbeat CPU 0 instructions: 61000003 cycles: 114776293 heartbeat IPC: 0.24861 cumulative IPC: 0.469746 (Simulation time: 0 hr 37 min 55 sec) 
select_counter is 1023
Heartbeat CPU 0 instructions: 62000001 cycles: 118768410 heartbeat IPC: 0.250493 cumulative IPC: 0.46197 (Simulation time: 0 hr 38 min 42 sec) 
select_counter is 1023
Heartbeat CPU 0 instructions: 63000000 cycles: 121976133 heartbeat IPC: 0.311747 cumulative IPC: 0.457808 (Simulation time: 0 hr 39 min 20 sec) 
select_counter is 1023
Heartbeat CPU 0 instructions: 64000000 cycles: 123762352 heartbeat IPC: 0.559842 cumulative IPC: 0.459358 (Simulation time: 0 hr 39 min 50 sec) 
select_counter is 1023
Heartbeat CPU 0 instructions: 65000000 cycles: 125579422 heartbeat IPC: 0.550337 cumulative IPC: 0.460743 (Simulation time: 0 hr 40 min 22 sec) 
select_counter is 1022
Heartbeat CPU 0 instructions: 66000002 cycles: 127400983 heartbeat IPC: 0.548981 cumulative IPC: 0.462069 (Simulation time: 0 hr 40 min 51 sec) 
select_counter is 1022
Heartbeat CPU 0 instructions: 67000001 cycles: 129210266 heartbeat IPC: 0.552705 cumulative IPC: 0.463402 (Simulation time: 0 hr 41 min 18 sec) 
select_counter is 1023
Heartbeat CPU 0 instructions: 68000000 cycles: 131096430 heartbeat IPC: 0.530176 cumulative IPC: 0.464411 (Simulation time: 0 hr 41 min 43 sec) 
select_counter is 1023
Heartbeat CPU 0 instructions: 69000000 cycles: 132876662 heartbeat IPC: 0.561725 cumulative IPC: 0.465778 (Simulation time: 0 hr 42 min 10 sec) 
select_counter is 1023
Heartbeat CPU 0 instructions: 70000000 cycles: 134693145 heartbeat IPC: 0.550514 cumulative IPC: 0.466976 (Simulation time: 0 hr 42 min 35 sec) 
select_counter is 1022
Heartbeat CPU 0 instructions: 71000000 cycles: 136448886 heartbeat IPC: 0.56956 cumulative IPC: 0.468359 (Simulation time: 0 hr 43 min 2 sec) 
select_counter is 1020
Heartbeat CPU 0 instructions: 72000000 cycles: 138272924 heartbeat IPC: 0.548234 cumulative IPC: 0.469462 (Simulation time: 0 hr 43 min 28 sec) 
select_counter is 1023
Heartbeat CPU 0 instructions: 73000003 cycles: 140113201 heartbeat IPC: 0.543398 cumulative IPC: 0.470478 (Simulation time: 0 hr 43 min 55 sec) 
select_counter is 1023
Heartbeat CPU 0 instructions: 74000000 cycles: 141911334 heartbeat IPC: 0.556131 cumulative IPC: 0.471613 (Simulation time: 0 hr 44 min 20 sec) 
select_counter is 1023
Heartbeat CPU 0 instructions: 75000000 cycles: 143773571 heartbeat IPC: 0.536989 cumulative IPC: 0.472498 (Simulation time: 0 hr 44 min 45 sec) 
select_counter is 1023
Heartbeat CPU 0 instructions: 76000000 cycles: 145557811 heartbeat IPC: 0.560463 cumulative IPC: 0.473625 (Simulation time: 0 hr 45 min 6 sec) 
select_counter is 1023
Heartbeat CPU 0 instructions: 77000000 cycles: 147406947 heartbeat IPC: 0.540793 cumulative IPC: 0.474504 (Simulation time: 0 hr 45 min 27 sec) 
select_counter is 1021
Heartbeat CPU 0 instructions: 78000001 cycles: 149240280 heartbeat IPC: 0.545455 cumulative IPC: 0.475414 (Simulation time: 0 hr 45 min 48 sec) 
select_counter is 1023
Heartbeat CPU 0 instructions: 79000001 cycles: 151109077 heartbeat IPC: 0.535104 cumulative IPC: 0.476184 (Simulation time: 0 hr 46 min 10 sec) 
select_counter is 1023
Heartbeat CPU 0 instructions: 80000000 cycles: 152969275 heartbeat IPC: 0.537577 cumulative IPC: 0.476962 (Simulation time: 0 hr 46 min 32 sec) 
select_counter is 1022
Heartbeat CPU 0 instructions: 81000000 cycles: 154769830 heartbeat IPC: 0.555384 cumulative IPC: 0.477912 (Simulation time: 0 hr 46 min 52 sec) 
select_counter is 1023
Heartbeat CPU 0 instructions: 82000003 cycles: 156612138 heartbeat IPC: 0.542799 cumulative IPC: 0.478707 (Simulation time: 0 hr 47 min 11 sec) 
select_counter is 1023
Heartbeat CPU 0 instructions: 83000001 cycles: 158400097 heartbeat IPC: 0.559296 cumulative IPC: 0.479654 (Simulation time: 0 hr 47 min 30 sec) 
select_counter is 1023
Heartbeat CPU 0 instructions: 84000000 cycles: 160218594 heartbeat IPC: 0.549904 cumulative IPC: 0.480483 (Simulation time: 0 hr 47 min 45 sec) 
select_counter is 1021
Heartbeat CPU 0 instructions: 85000001 cycles: 162016450 heartbeat IPC: 0.556219 cumulative IPC: 0.481357 (Simulation time: 0 hr 47 min 59 sec) 
select_counter is 1022
Heartbeat CPU 0 instructions: 86000003 cycles: 163821702 heartbeat IPC: 0.55394 cumulative IPC: 0.482188 (Simulation time: 0 hr 48 min 13 sec) 
select_counter is 1023
Heartbeat CPU 0 instructions: 87000001 cycles: 165629777 heartbeat IPC: 0.553073 cumulative IPC: 0.482992 (Simulation time: 0 hr 48 min 26 sec) 
select_counter is 1022
Heartbeat CPU 0 instructions: 88000000 cycles: 167442220 heartbeat IPC: 0.551741 cumulative IPC: 0.483765 (Simulation time: 0 hr 48 min 40 sec) 
select_counter is 1023
Heartbeat CPU 0 instructions: 89000001 cycles: 169298075 heartbeat IPC: 0.538836 cumulative IPC: 0.484392 (Simulation time: 0 hr 48 min 54 sec) 
select_counter is 1022
Heartbeat CPU 0 instructions: 90000002 cycles: 171116516 heartbeat IPC: 0.549922 cumulative IPC: 0.485114 (Simulation time: 0 hr 49 min 7 sec) 
select_counter is 1022
Heartbeat CPU 0 instructions: 91000000 cycles: 172959824 heartbeat IPC: 0.542502 cumulative IPC: 0.485749 (Simulation time: 0 hr 49 min 21 sec) 
select_counter is 1021
Heartbeat CPU 0 instructions: 92000000 cycles: 174750478 heartbeat IPC: 0.558455 cumulative IPC: 0.486521 (Simulation time: 0 hr 49 min 35 sec) 
select_counter is 1023
Heartbeat CPU 0 instructions: 93000001 cycles: 176609685 heartbeat IPC: 0.537864 cumulative IPC: 0.487081 (Simulation time: 0 hr 49 min 48 sec) 
select_counter is 1022
Heartbeat CPU 0 instructions: 94000000 cycles: 178398719 heartbeat IPC: 0.55896 cumulative IPC: 0.487828 (Simulation time: 0 hr 50 min 1 sec) 
select_counter is 1023
Heartbeat CPU 0 instructions: 95000003 cycles: 180193298 heartbeat IPC: 0.557235 cumulative IPC: 0.488544 (Simulation time: 0 hr 50 min 12 sec) 
select_counter is 1023
Heartbeat CPU 0 instructions: 96000000 cycles: 182042820 heartbeat IPC: 0.540679 cumulative IPC: 0.489092 (Simulation time: 0 hr 50 min 23 sec) 
select_counter is 1022
Heartbeat CPU 0 instructions: 97000001 cycles: 183839632 heartbeat IPC: 0.556542 cumulative IPC: 0.489775 (Simulation time: 0 hr 50 min 33 sec) 
select_counter is 1023
Heartbeat CPU 0 instructions: 98000002 cycles: 185701518 heartbeat IPC: 0.53709 cumulative IPC: 0.490266 (Simulation time: 0 hr 50 min 44 sec) 
select_counter is 1023
Heartbeat CPU 0 instructions: 99000000 cycles: 187516903 heartbeat IPC: 0.550846 cumulative IPC: 0.490872 (Simulation time: 0 hr 50 min 54 sec) 
select_counter is 1023
Heartbeat CPU 0 instructions: 100000000 cycles: 189403715 heartbeat IPC: 0.529994 cumulative IPC: 0.491275 (Simulation time: 0 hr 51 min 4 sec) 
select_counter is 1023
Heartbeat CPU 0 instructions: 101000001 cycles: 191235384 heartbeat IPC: 0.545951 cumulative IPC: 0.491816 (Simulation time: 0 hr 51 min 13 sec) 
select_counter is 1023
Heartbeat CPU 0 instructions: 102000001 cycles: 193026410 heartbeat IPC: 0.558339 cumulative IPC: 0.492454 (Simulation time: 0 hr 51 min 22 sec) 
select_counter is 1023
Heartbeat CPU 0 instructions: 103000002 cycles: 194876776 heartbeat IPC: 0.540434 cumulative IPC: 0.492925 (Simulation time: 0 hr 51 min 31 sec) 
select_counter is 1023
Heartbeat CPU 0 instructions: 104000000 cycles: 196661532 heartbeat IPC: 0.5603 cumulative IPC: 0.493556 (Simulation time: 0 hr 51 min 40 sec) 
select_counter is 1023
Heartbeat CPU 0 instructions: 105000001 cycles: 198522089 heartbeat IPC: 0.537474 cumulative IPC: 0.493981 (Simulation time: 0 hr 51 min 48 sec) 
select_counter is 1021
Heartbeat CPU 0 instructions: 106000002 cycles: 200321784 heartbeat IPC: 0.55565 cumulative IPC: 0.494553 (Simulation time: 0 hr 51 min 55 sec) 
select_counter is 1023
Heartbeat CPU 0 instructions: 107000000 cycles: 202145367 heartbeat IPC: 0.54837 cumulative IPC: 0.495054 (Simulation time: 0 hr 52 min 2 sec) 
select_counter is 1023
Heartbeat CPU 0 instructions: 108000000 cycles: 203957957 heartbeat IPC: 0.551697 cumulative IPC: 0.495573 (Simulation time: 0 hr 52 min 7 sec) 
select_counter is 1023
Heartbeat CPU 0 instructions: 109000002 cycles: 205726971 heartbeat IPC: 0.565288 cumulative IPC: 0.496191 (Simulation time: 0 hr 52 min 12 sec) 
select_counter is 1023
Heartbeat CPU 0 instructions: 110000001 cycles: 207559650 heartbeat IPC: 0.545649 cumulative IPC: 0.496641 (Simulation time: 0 hr 52 min 17 sec) 
select_counter is 1022
Finished CPU 0 instructions: 100000000 cycles: 201352689 cummulative IPC: 0.496641 (Simulation time: 0 hr 52 min 17 sec) 

ChampSim completed all CPUs

Region of Interest Statistics

CPU 0 cummulative IPC: 0.496641 instructions: 100000000 cycles: 201352689
LLC TOTAL     ACCESS:    3679358  HIT:    1465171  MISS:    2214187
LLC LOAD      ACCESS:    2465972  HIT:     864435  MISS:    1601537
LLC RFO       ACCESS:     467653  HIT:     172697  MISS:     294956
LLC PREFETCH  ACCESS:          0  HIT:          0  MISS:          0
LLC WRITEBACK ACCESS:     745733  HIT:     428039  MISS:     317694
Ship samples: 
31, 57, 91, 123, 144, 160, 215, 243, 285, 297, 324, 377, 393, 446, 467, 491, 519, 547, 587, 610, 654, 688, 713, 757, 778, 808, 844, 876, 924, 937, 990, 993, 1049, 1064, 1090, 1151, 1165, 1205, 1236, 1276, 1288, 1325, 1350, 1385, 1411, 1457, 1480, 1511, 1558, 1574, 1626, 1641, 1685, 1725, 1753, 1777, 1813, 1828, 1862, 1890, 1940, 1961, 1996, 2027, 
Lime duel samples: 
23, 102, 213, 294, 413, 500, 578, 674, 774, 865, 975, 1060, 1168, 1258, 1364, 1459, 1537, 1637, 1737, 1830, 1943, 
Lime samples: 
23, 102, 213, 294, 413, 500, 578, 674, 774, 865, 975, 1060, 1168, 1258, 1364, 1459, 1537, 1637, 1737, 1830, 1943, 
Insertion Distribution: 
	LOAD 7497 0 0 0 0 0 4673 45251 
	RFO 42 0 0 0 0 0 281 8834 
	PREF 0 0 0 0 0 0 0 0 
	WRITEBACK 0 0 0 0 0 0 0 13779 
Total Prefetch Downgrades: 0
