
*** ChampSim Multicore Out-of-Order Simulator ***

Warmup Instructions: 10000000
Simulation Instructions: 100000000
Configuration: 1
Number of CPUs: 1
LLC sets: 2048
LLC ways: 16
Off-chip DRAM Channels: 1 Width: 64-bit Data Rate: 1600 MT/s

CPU 0 runs /datasets/cs240c-wi22-a00-public/data/Assignment2-gz/mcf_46B.trace.gz
Heartbeat CPU 0 instructions: 1000002 cycles: 482135 heartbeat IPC: 2.07411 cumulative IPC: 2.07411 (Simulation time: 0 hr 0 min 31 sec) 
select_counter is 1023
Heartbeat CPU 0 instructions: 2000002 cycles: 967390 heartbeat IPC: 2.06077 cumulative IPC: 2.06742 (Simulation time: 0 hr 1 min 2 sec) 
select_counter is 1022
Heartbeat CPU 0 instructions: 3000000 cycles: 1483955 heartbeat IPC: 1.93586 cumulative IPC: 2.02162 (Simulation time: 0 hr 1 min 38 sec) 
select_counter is 1023
Heartbeat CPU 0 instructions: 4000000 cycles: 1994902 heartbeat IPC: 1.95715 cumulative IPC: 2.00511 (Simulation time: 0 hr 2 min 12 sec) 
select_counter is 1022
Heartbeat CPU 0 instructions: 5000000 cycles: 2477579 heartbeat IPC: 2.07178 cumulative IPC: 2.0181 (Simulation time: 0 hr 2 min 44 sec) 
select_counter is 1023
Heartbeat CPU 0 instructions: 6000003 cycles: 2971918 heartbeat IPC: 2.02291 cumulative IPC: 2.0189 (Simulation time: 0 hr 3 min 17 sec) 
select_counter is 1022
Heartbeat CPU 0 instructions: 7000001 cycles: 3503004 heartbeat IPC: 1.88293 cumulative IPC: 1.99829 (Simulation time: 0 hr 3 min 50 sec) 
select_counter is 1023
Heartbeat CPU 0 instructions: 8000000 cycles: 3982659 heartbeat IPC: 2.08483 cumulative IPC: 2.00871 (Simulation time: 0 hr 4 min 23 sec) 
select_counter is 1023
Heartbeat CPU 0 instructions: 9000001 cycles: 4455743 heartbeat IPC: 2.11379 cumulative IPC: 2.01987 (Simulation time: 0 hr 4 min 56 sec) 
select_counter is 1023
Heartbeat CPU 0 instructions: 10000001 cycles: 4979930 heartbeat IPC: 1.90772 cumulative IPC: 2.00806 (Simulation time: 0 hr 5 min 28 sec) 
select_counter is 1023

Warmup complete CPU 0 instructions: 10000001 cycles: 4979930 (Simulation time: 0 hr 5 min 28 sec) 

Heartbeat CPU 0 instructions: 11000002 cycles: 18241822 heartbeat IPC: 0.0754041 cumulative IPC: 0.0754041 (Simulation time: 0 hr 6 min 34 sec) 
select_counter is 1023
Heartbeat CPU 0 instructions: 12000000 cycles: 23322126 heartbeat IPC: 0.196838 cumulative IPC: 0.109038 (Simulation time: 0 hr 7 min 19 sec) 
select_counter is 1021
Heartbeat CPU 0 instructions: 13000000 cycles: 31346941 heartbeat IPC: 0.124613 cumulative IPC: 0.113779 (Simulation time: 0 hr 8 min 9 sec) 
select_counter is 1023
Heartbeat CPU 0 instructions: 14000003 cycles: 45826299 heartbeat IPC: 0.069064 cumulative IPC: 0.097928 (Simulation time: 0 hr 9 min 23 sec) 
select_counter is 1023
Heartbeat CPU 0 instructions: 15000000 cycles: 50812840 heartbeat IPC: 0.200539 cumulative IPC: 0.109092 (Simulation time: 0 hr 10 min 10 sec) 
select_counter is 1022
Heartbeat CPU 0 instructions: 16000000 cycles: 55414246 heartbeat IPC: 0.217325 cumulative IPC: 0.118967 (Simulation time: 0 hr 10 min 56 sec) 
select_counter is 1023
Heartbeat CPU 0 instructions: 17000002 cycles: 70531877 heartbeat IPC: 0.0661481 cumulative IPC: 0.106786 (Simulation time: 0 hr 12 min 11 sec) 
select_counter is 1021
Heartbeat CPU 0 instructions: 18000000 cycles: 76317746 heartbeat IPC: 0.172835 cumulative IPC: 0.112142 (Simulation time: 0 hr 12 min 58 sec) 
select_counter is 1023
Heartbeat CPU 0 instructions: 19000002 cycles: 81572734 heartbeat IPC: 0.190296 cumulative IPC: 0.117505 (Simulation time: 0 hr 13 min 46 sec) 
select_counter is 1022
Heartbeat CPU 0 instructions: 20000000 cycles: 97566400 heartbeat IPC: 0.0625246 cumulative IPC: 0.108007 (Simulation time: 0 hr 15 min 0 sec) 
select_counter is 1023
Heartbeat CPU 0 instructions: 21000001 cycles: 113581278 heartbeat IPC: 0.062442 cumulative IPC: 0.101288 (Simulation time: 0 hr 16 min 10 sec) 
select_counter is 1023
Heartbeat CPU 0 instructions: 22000002 cycles: 118733131 heartbeat IPC: 0.194105 cumulative IPC: 0.105492 (Simulation time: 0 hr 16 min 57 sec) 
select_counter is 1023
Heartbeat CPU 0 instructions: 23000001 cycles: 123495265 heartbeat IPC: 0.20999 cumulative IPC: 0.10969 (Simulation time: 0 hr 17 min 40 sec) 
select_counter is 1023
Heartbeat CPU 0 instructions: 24000000 cycles: 136543788 heartbeat IPC: 0.0766369 cumulative IPC: 0.106412 (Simulation time: 0 hr 18 min 45 sec) 
select_counter is 1023
Heartbeat CPU 0 instructions: 25000002 cycles: 144562652 heartbeat IPC: 0.124706 cumulative IPC: 0.107463 (Simulation time: 0 hr 19 min 38 sec) 
select_counter is 1023
Heartbeat CPU 0 instructions: 26000001 cycles: 149201195 heartbeat IPC: 0.215585 cumulative IPC: 0.110941 (Simulation time: 0 hr 20 min 19 sec) 
select_counter is 1022
Heartbeat CPU 0 instructions: 27000000 cycles: 159142911 heartbeat IPC: 0.100586 cumulative IPC: 0.110273 (Simulation time: 0 hr 21 min 8 sec) 
select_counter is 1022
Heartbeat CPU 0 instructions: 28000000 cycles: 170462136 heartbeat IPC: 0.0883453 cumulative IPC: 0.108773 (Simulation time: 0 hr 21 min 59 sec) 
select_counter is 1017
Heartbeat CPU 0 instructions: 29000001 cycles: 175616700 heartbeat IPC: 0.194003 cumulative IPC: 0.111348 (Simulation time: 0 hr 22 min 37 sec) 
select_counter is 1023
Heartbeat CPU 0 instructions: 30000000 cycles: 183347920 heartbeat IPC: 0.129346 cumulative IPC: 0.112128 (Simulation time: 0 hr 23 min 25 sec) 
select_counter is 1023
Heartbeat CPU 0 instructions: 31000001 cycles: 196876259 heartbeat IPC: 0.073919 cumulative IPC: 0.109434 (Simulation time: 0 hr 24 min 26 sec) 
select_counter is 1023
Heartbeat CPU 0 instructions: 32000000 cycles: 201988505 heartbeat IPC: 0.195609 cumulative IPC: 0.11167 (Simulation time: 0 hr 25 min 6 sec) 
select_counter is 1023
Heartbeat CPU 0 instructions: 33000000 cycles: 209058046 heartbeat IPC: 0.141452 cumulative IPC: 0.112702 (Simulation time: 0 hr 25 min 49 sec) 
select_counter is 1023
Heartbeat CPU 0 instructions: 34000000 cycles: 223682523 heartbeat IPC: 0.0683785 cumulative IPC: 0.109738 (Simulation time: 0 hr 26 min 56 sec) 
select_counter is 1023
Heartbeat CPU 0 instructions: 35000000 cycles: 230443337 heartbeat IPC: 0.147911 cumulative IPC: 0.110883 (Simulation time: 0 hr 27 min 42 sec) 
select_counter is 1023
Heartbeat CPU 0 instructions: 36000000 cycles: 237608948 heartbeat IPC: 0.139555 cumulative IPC: 0.111766 (Simulation time: 0 hr 28 min 27 sec) 
select_counter is 1023
Heartbeat CPU 0 instructions: 37000002 cycles: 247880618 heartbeat IPC: 0.0973554 cumulative IPC: 0.111157 (Simulation time: 0 hr 29 min 18 sec) 
select_counter is 1023
Heartbeat CPU 0 instructions: 38000000 cycles: 259101469 heartbeat IPC: 0.0891196 cumulative IPC: 0.110183 (Simulation time: 0 hr 30 min 13 sec) 
select_counter is 1021
Heartbeat CPU 0 instructions: 39000000 cycles: 264218696 heartbeat IPC: 0.195418 cumulative IPC: 0.111866 (Simulation time: 0 hr 30 min 52 sec) 
select_counter is 1023
Heartbeat CPU 0 instructions: 40000000 cycles: 270845630 heartbeat IPC: 0.150899 cumulative IPC: 0.112839 (Simulation time: 0 hr 31 min 35 sec) 
select_counter is 1023
Heartbeat CPU 0 instructions: 41000000 cycles: 285422303 heartbeat IPC: 0.0686028 cumulative IPC: 0.11054 (Simulation time: 0 hr 32 min 41 sec) 
select_counter is 1023
Heartbeat CPU 0 instructions: 42000001 cycles: 291081807 heartbeat IPC: 0.176694 cumulative IPC: 0.111848 (Simulation time: 0 hr 33 min 20 sec) 
select_counter is 1023
Heartbeat CPU 0 instructions: 43000000 cycles: 296071867 heartbeat IPC: 0.200398 cumulative IPC: 0.113366 (Simulation time: 0 hr 34 min 1 sec) 
select_counter is 1018
Heartbeat CPU 0 instructions: 44000000 cycles: 309441475 heartbeat IPC: 0.0747965 cumulative IPC: 0.111673 (Simulation time: 0 hr 34 min 58 sec) 
select_counter is 1023
Heartbeat CPU 0 instructions: 45000001 cycles: 317400049 heartbeat IPC: 0.125651 cumulative IPC: 0.112029 (Simulation time: 0 hr 35 min 48 sec) 
select_counter is 1023
Heartbeat CPU 0 instructions: 46000001 cycles: 322498042 heartbeat IPC: 0.196156 cumulative IPC: 0.113379 (Simulation time: 0 hr 36 min 30 sec) 
select_counter is 1023
Heartbeat CPU 0 instructions: 47000002 cycles: 332280450 heartbeat IPC: 0.102224 cumulative IPC: 0.113046 (Simulation time: 0 hr 37 min 22 sec) 
select_counter is 1023
Heartbeat CPU 0 instructions: 48000000 cycles: 344036508 heartbeat IPC: 0.0850624 cumulative IPC: 0.112076 (Simulation time: 0 hr 38 min 14 sec) 
select_counter is 1022
Heartbeat CPU 0 instructions: 49000000 cycles: 349440560 heartbeat IPC: 0.185046 cumulative IPC: 0.11322 (Simulation time: 0 hr 38 min 50 sec) 
select_counter is 1022
Heartbeat CPU 0 instructions: 50000001 cycles: 356381937 heartbeat IPC: 0.144064 cumulative IPC: 0.11383 (Simulation time: 0 hr 39 min 34 sec) 
select_counter is 1023
Heartbeat CPU 0 instructions: 51000001 cycles: 370693284 heartbeat IPC: 0.0698746 cumulative IPC: 0.11211 (Simulation time: 0 hr 40 min 35 sec) 
select_counter is 1023
Heartbeat CPU 0 instructions: 52000000 cycles: 376029549 heartbeat IPC: 0.187397 cumulative IPC: 0.113192 (Simulation time: 0 hr 41 min 11 sec) 
select_counter is 1023
Heartbeat CPU 0 instructions: 53000000 cycles: 381081989 heartbeat IPC: 0.197924 cumulative IPC: 0.114331 (Simulation time: 0 hr 41 min 44 sec) 
select_counter is 1023
Heartbeat CPU 0 instructions: 54000002 cycles: 396547156 heartbeat IPC: 0.0646616 cumulative IPC: 0.112369 (Simulation time: 0 hr 42 min 36 sec) 
select_counter is 1023
Heartbeat CPU 0 instructions: 55000002 cycles: 402402871 heartbeat IPC: 0.170773 cumulative IPC: 0.113229 (Simulation time: 0 hr 43 min 5 sec) 
select_counter is 1023
Heartbeat CPU 0 instructions: 56000000 cycles: 407563813 heartbeat IPC: 0.193763 cumulative IPC: 0.114262 (Simulation time: 0 hr 43 min 33 sec) 
select_counter is 1021
Heartbeat CPU 0 instructions: 57000000 cycles: 420931250 heartbeat IPC: 0.0748087 cumulative IPC: 0.112994 (Simulation time: 0 hr 44 min 14 sec) 
select_counter is 1023
Heartbeat CPU 0 instructions: 58000000 cycles: 428890858 heartbeat IPC: 0.125634 cumulative IPC: 0.113231 (Simulation time: 0 hr 44 min 46 sec) 
select_counter is 1023
Heartbeat CPU 0 instructions: 59000002 cycles: 434042644 heartbeat IPC: 0.194108 cumulative IPC: 0.114202 (Simulation time: 0 hr 45 min 12 sec) 
select_counter is 1021
Heartbeat CPU 0 instructions: 60000000 cycles: 445827829 heartbeat IPC: 0.0848521 cumulative IPC: 0.113418 (Simulation time: 0 hr 45 min 49 sec) 
select_counter is 1023
Heartbeat CPU 0 instructions: 61000000 cycles: 455726928 heartbeat IPC: 0.101019 cumulative IPC: 0.113146 (Simulation time: 0 hr 46 min 23 sec) 
select_counter is 1022
Heartbeat CPU 0 instructions: 62000001 cycles: 460830450 heartbeat IPC: 0.195943 cumulative IPC: 0.114072 (Simulation time: 0 hr 46 min 48 sec) 
select_counter is 1023
Heartbeat CPU 0 instructions: 63000001 cycles: 471145316 heartbeat IPC: 0.0969475 cumulative IPC: 0.113694 (Simulation time: 0 hr 47 min 16 sec) 
select_counter is 1021
Heartbeat CPU 0 instructions: 64000000 cycles: 482816673 heartbeat IPC: 0.0856798 cumulative IPC: 0.113009 (Simulation time: 0 hr 47 min 42 sec) 
select_counter is 1018
Heartbeat CPU 0 instructions: 65000000 cycles: 488967970 heartbeat IPC: 0.162567 cumulative IPC: 0.113639 (Simulation time: 0 hr 47 min 59 sec) 
select_counter is 1023
Heartbeat CPU 0 instructions: 66000000 cycles: 496210805 heartbeat IPC: 0.138067 cumulative IPC: 0.113999 (Simulation time: 0 hr 48 min 16 sec) 
select_counter is 1023
Heartbeat CPU 0 instructions: 67000001 cycles: 511947616 heartbeat IPC: 0.0635453 cumulative IPC: 0.112433 (Simulation time: 0 hr 48 min 44 sec) 
select_counter is 1023
Heartbeat CPU 0 instructions: 68000000 cycles: 517295190 heartbeat IPC: 0.187 cumulative IPC: 0.113212 (Simulation time: 0 hr 48 min 58 sec) 
select_counter is 1022
Heartbeat CPU 0 instructions: 69000000 cycles: 522272135 heartbeat IPC: 0.200926 cumulative IPC: 0.114055 (Simulation time: 0 hr 49 min 13 sec) 
select_counter is 1022
Heartbeat CPU 0 instructions: 70000002 cycles: 536606667 heartbeat IPC: 0.0697617 cumulative IPC: 0.112861 (Simulation time: 0 hr 49 min 38 sec) 
select_counter is 1023
Heartbeat CPU 0 instructions: 71000002 cycles: 546292581 heartbeat IPC: 0.103243 cumulative IPC: 0.112689 (Simulation time: 0 hr 49 min 57 sec) 
select_counter is 1021
Heartbeat CPU 0 instructions: 72000000 cycles: 551808955 heartbeat IPC: 0.181278 cumulative IPC: 0.113381 (Simulation time: 0 hr 50 min 11 sec) 
select_counter is 1022
Heartbeat CPU 0 instructions: 73000002 cycles: 561248396 heartbeat IPC: 0.105939 cumulative IPC: 0.113255 (Simulation time: 0 hr 50 min 26 sec) 
select_counter is 1023
Heartbeat CPU 0 instructions: 74000001 cycles: 573426358 heartbeat IPC: 0.0821155 cumulative IPC: 0.112588 (Simulation time: 0 hr 50 min 43 sec) 
select_counter is 1023
Heartbeat CPU 0 instructions: 75000001 cycles: 578911292 heartbeat IPC: 0.182318 cumulative IPC: 0.113254 (Simulation time: 0 hr 50 min 55 sec) 
select_counter is 1022
Heartbeat CPU 0 instructions: 76000000 cycles: 585600251 heartbeat IPC: 0.1495 cumulative IPC: 0.113672 (Simulation time: 0 hr 51 min 7 sec) 
select_counter is 1023
Heartbeat CPU 0 instructions: 77000001 cycles: 601852916 heartbeat IPC: 0.0615284 cumulative IPC: 0.112252 (Simulation time: 0 hr 51 min 25 sec) 
select_counter is 1021
Heartbeat CPU 0 instructions: 78000002 cycles: 607569769 heartbeat IPC: 0.174922 cumulative IPC: 0.112846 (Simulation time: 0 hr 51 min 35 sec) 
select_counter is 1021
Heartbeat CPU 0 instructions: 79000001 cycles: 612694019 heartbeat IPC: 0.19515 cumulative IPC: 0.11354 (Simulation time: 0 hr 51 min 44 sec) 
select_counter is 1022
Heartbeat CPU 0 instructions: 80000000 cycles: 625778146 heartbeat IPC: 0.0764284 cumulative IPC: 0.112758 (Simulation time: 0 hr 51 min 56 sec) 
select_counter is 1023
Heartbeat CPU 0 instructions: 81000000 cycles: 633866013 heartbeat IPC: 0.123642 cumulative IPC: 0.112898 (Simulation time: 0 hr 52 min 5 sec) 
select_counter is 1023
Heartbeat CPU 0 instructions: 82000000 cycles: 639587102 heartbeat IPC: 0.174792 cumulative IPC: 0.113456 (Simulation time: 0 hr 52 min 11 sec) 
select_counter is 1022
Heartbeat CPU 0 instructions: 83000001 cycles: 649585235 heartbeat IPC: 0.100019 cumulative IPC: 0.113248 (Simulation time: 0 hr 52 min 18 sec) 
select_counter is 1023
Heartbeat CPU 0 instructions: 84000000 cycles: 661363758 heartbeat IPC: 0.0849002 cumulative IPC: 0.112739 (Simulation time: 0 hr 52 min 24 sec) 
select_counter is 1023
Heartbeat CPU 0 instructions: 85000001 cycles: 666554702 heartbeat IPC: 0.192643 cumulative IPC: 0.113366 (Simulation time: 0 hr 52 min 29 sec) 
select_counter is 1023
Heartbeat CPU 0 instructions: 86000000 cycles: 676023107 heartbeat IPC: 0.105614 cumulative IPC: 0.113256 (Simulation time: 0 hr 52 min 34 sec) 
select_counter is 1023
Heartbeat CPU 0 instructions: 87000000 cycles: 690576522 heartbeat IPC: 0.0687124 cumulative IPC: 0.112311 (Simulation time: 0 hr 52 min 40 sec) 
select_counter is 1023
Heartbeat CPU 0 instructions: 88000000 cycles: 697650244 heartbeat IPC: 0.141368 cumulative IPC: 0.112608 (Simulation time: 0 hr 52 min 45 sec) 
select_counter is 1022
Heartbeat CPU 0 instructions: 89000000 cycles: 702850455 heartbeat IPC: 0.1923 cumulative IPC: 0.113202 (Simulation time: 0 hr 52 min 49 sec) 
select_counter is 1023
Heartbeat CPU 0 instructions: 90000003 cycles: 714948889 heartbeat IPC: 0.0826556 cumulative IPC: 0.112681 (Simulation time: 0 hr 52 min 55 sec) 
select_counter is 1022
Heartbeat CPU 0 instructions: 91000000 cycles: 724235644 heartbeat IPC: 0.10768 cumulative IPC: 0.112616 (Simulation time: 0 hr 53 min 0 sec) 
select_counter is 1020
Heartbeat CPU 0 instructions: 92000000 cycles: 729310474 heartbeat IPC: 0.197051 cumulative IPC: 0.113208 (Simulation time: 0 hr 53 min 4 sec) 
select_counter is 1023
Heartbeat CPU 0 instructions: 93000002 cycles: 738762650 heartbeat IPC: 0.105796 cumulative IPC: 0.113113 (Simulation time: 0 hr 53 min 9 sec) 
select_counter is 1022
Heartbeat CPU 0 instructions: 94000002 cycles: 750422739 heartbeat IPC: 0.0857626 cumulative IPC: 0.112685 (Simulation time: 0 hr 53 min 15 sec) 
select_counter is 1023
Heartbeat CPU 0 instructions: 95000001 cycles: 757221870 heartbeat IPC: 0.147077 cumulative IPC: 0.112996 (Simulation time: 0 hr 53 min 19 sec) 
select_counter is 1023
Heartbeat CPU 0 instructions: 96000000 cycles: 763575781 heartbeat IPC: 0.157383 cumulative IPC: 0.113367 (Simulation time: 0 hr 53 min 24 sec) 
select_counter is 1022
Heartbeat CPU 0 instructions: 97000000 cycles: 778543912 heartbeat IPC: 0.0668086 cumulative IPC: 0.112466 (Simulation time: 0 hr 53 min 30 sec) 
select_counter is 1022
Heartbeat CPU 0 instructions: 98000002 cycles: 783941843 heartbeat IPC: 0.185257 cumulative IPC: 0.112971 (Simulation time: 0 hr 53 min 34 sec) 
select_counter is 1023
Heartbeat CPU 0 instructions: 99000002 cycles: 789356143 heartbeat IPC: 0.184696 cumulative IPC: 0.113466 (Simulation time: 0 hr 53 min 38 sec) 
select_counter is 1023
Heartbeat CPU 0 instructions: 100000000 cycles: 803373941 heartbeat IPC: 0.0713377 cumulative IPC: 0.112726 (Simulation time: 0 hr 53 min 45 sec) 
select_counter is 1023
Heartbeat CPU 0 instructions: 101000000 cycles: 810736592 heartbeat IPC: 0.135821 cumulative IPC: 0.112937 (Simulation time: 0 hr 53 min 49 sec) 
select_counter is 1023
Heartbeat CPU 0 instructions: 102000003 cycles: 815762305 heartbeat IPC: 0.198977 cumulative IPC: 0.113471 (Simulation time: 0 hr 53 min 53 sec) 
select_counter is 1023
Heartbeat CPU 0 instructions: 103000003 cycles: 827875463 heartbeat IPC: 0.0825549 cumulative IPC: 0.113016 (Simulation time: 0 hr 53 min 59 sec) 
select_counter is 1023
Heartbeat CPU 0 instructions: 104000000 cycles: 840776287 heartbeat IPC: 0.0775142 cumulative IPC: 0.112468 (Simulation time: 0 hr 54 min 5 sec) 
select_counter is 1023
Heartbeat CPU 0 instructions: 105000000 cycles: 846568907 heartbeat IPC: 0.172633 cumulative IPC: 0.112882 (Simulation time: 0 hr 54 min 9 sec) 
select_counter is 1023
Heartbeat CPU 0 instructions: 106000000 cycles: 851594559 heartbeat IPC: 0.198979 cumulative IPC: 0.113393 (Simulation time: 0 hr 54 min 13 sec) 
select_counter is 1023
Heartbeat CPU 0 instructions: 107000002 cycles: 866799271 heartbeat IPC: 0.0657692 cumulative IPC: 0.112553 (Simulation time: 0 hr 54 min 20 sec) 
select_counter is 1023
Heartbeat CPU 0 instructions: 108000000 cycles: 872871280 heartbeat IPC: 0.16469 cumulative IPC: 0.112917 (Simulation time: 0 hr 54 min 24 sec) 
select_counter is 1023
Heartbeat CPU 0 instructions: 109000001 cycles: 878050404 heartbeat IPC: 0.193083 cumulative IPC: 0.113393 (Simulation time: 0 hr 54 min 28 sec) 
select_counter is 1023
Heartbeat CPU 0 instructions: 110000002 cycles: 888190213 heartbeat IPC: 0.0986213 cumulative IPC: 0.113223 (Simulation time: 0 hr 54 min 34 sec) 
select_counter is 1023
Finished CPU 0 instructions: 100000001 cycles: 883210283 cummulative IPC: 0.113223 (Simulation time: 0 hr 54 min 34 sec) 

ChampSim completed all CPUs

Region of Interest Statistics

CPU 0 cummulative IPC: 0.113223 instructions: 100000001 cycles: 883210283
LLC TOTAL     ACCESS:   11193227  HIT:    4825612  MISS:    6367615
LLC LOAD      ACCESS:    8987727  HIT:    3471636  MISS:    5516091
LLC RFO       ACCESS:     195632  HIT:     116350  MISS:      79282
LLC PREFETCH  ACCESS:          0  HIT:          0  MISS:          0
LLC WRITEBACK ACCESS:    2009868  HIT:    1237626  MISS:     772242
Ship samples: 
10, 42, 76, 109, 150, 183, 215, 238, 278, 291, 332, 366, 396, 419, 475, 495, 535, 563, 596, 608, 645, 694, 734, 749, 794, 829, 837, 874, 916, 940, 970, 1013, 1045, 1060, 1098, 1139, 1180, 1196, 1229, 1264, 1289, 1326, 1368, 1377, 1414, 1469, 1481, 1521, 1563, 1575, 1625, 1653, 1668, 1713, 1755, 1785, 1806, 1843, 1856, 1907, 1922, 1974, 1987, 2025, 
Lime duel samples: 
20, 122, 203, 310, 387, 508, 579, 696, 789, 875, 976, 1065, 1167, 1273, 1359, 1453, 1566, 1658, 1745, 1832, 1926, 
Lime samples: 
20, 122, 203, 310, 387, 508, 579, 696, 789, 875, 976, 1065, 1167, 1273, 1359, 1453, 1566, 1658, 1745, 1832, 1926, 
Insertion Distribution: 
	LOAD 8721 0 0 0 0 0 3909 168785 
	RFO 1454 0 0 0 0 0 574 356 
	PREF 0 0 0 0 0 0 0 0 
	WRITEBACK 0 0 0 0 0 0 0 21366 
Total Prefetch Downgrades: 0
