
*** ChampSim Multicore Out-of-Order Simulator ***

Warmup Instructions: 10000000
Simulation Instructions: 100000000
Configuration: 1
Number of CPUs: 1
LLC sets: 2048
LLC ways: 16
Off-chip DRAM Channels: 1 Width: 64-bit Data Rate: 1600 MT/s

CPU 0 runs /datasets/cs240c-wi22-a00-public/data/Assignment2-gz/gcc_13B.trace.gz
Heartbeat CPU 0 instructions: 1000000 cycles: 644728 heartbeat IPC: 1.55104 cumulative IPC: 1.55104 (Simulation time: 0 hr 0 min 29 sec) 
select_counter is 1023
Heartbeat CPU 0 instructions: 2000001 cycles: 1257215 heartbeat IPC: 1.63269 cumulative IPC: 1.59082 (Simulation time: 0 hr 1 min 2 sec) 
select_counter is 1022
Heartbeat CPU 0 instructions: 3000000 cycles: 1735175 heartbeat IPC: 2.09222 cumulative IPC: 1.72893 (Simulation time: 0 hr 1 min 35 sec) 
select_counter is 1023
Heartbeat CPU 0 instructions: 4000000 cycles: 2212943 heartbeat IPC: 2.09307 cumulative IPC: 1.80755 (Simulation time: 0 hr 2 min 4 sec) 
select_counter is 1023
Heartbeat CPU 0 instructions: 5000002 cycles: 2691192 heartbeat IPC: 2.09097 cumulative IPC: 1.85791 (Simulation time: 0 hr 2 min 37 sec) 
select_counter is 1023
Heartbeat CPU 0 instructions: 6000001 cycles: 3169161 heartbeat IPC: 2.09218 cumulative IPC: 1.89325 (Simulation time: 0 hr 3 min 6 sec) 
select_counter is 1023
Heartbeat CPU 0 instructions: 7000003 cycles: 3648805 heartbeat IPC: 2.08488 cumulative IPC: 1.91844 (Simulation time: 0 hr 3 min 34 sec) 
select_counter is 1023
Heartbeat CPU 0 instructions: 8000000 cycles: 4129424 heartbeat IPC: 2.08064 cumulative IPC: 1.93732 (Simulation time: 0 hr 4 min 4 sec) 
select_counter is 1023
Heartbeat CPU 0 instructions: 9000001 cycles: 4869629 heartbeat IPC: 1.35098 cumulative IPC: 1.84819 (Simulation time: 0 hr 4 min 38 sec) 
select_counter is 1023
Heartbeat CPU 0 instructions: 10000001 cycles: 5577792 heartbeat IPC: 1.4121 cumulative IPC: 1.79282 (Simulation time: 0 hr 5 min 14 sec) 
select_counter is 1022

Warmup complete CPU 0 instructions: 10000001 cycles: 5577792 (Simulation time: 0 hr 5 min 14 sec) 

Heartbeat CPU 0 instructions: 11000000 cycles: 13836895 heartbeat IPC: 0.121078 cumulative IPC: 0.121078 (Simulation time: 0 hr 6 min 7 sec) 
select_counter is 1023
Heartbeat CPU 0 instructions: 12000000 cycles: 22067225 heartbeat IPC: 0.121502 cumulative IPC: 0.12129 (Simulation time: 0 hr 6 min 57 sec) 
select_counter is 1023
Heartbeat CPU 0 instructions: 13000000 cycles: 29698345 heartbeat IPC: 0.131042 cumulative IPC: 0.124375 (Simulation time: 0 hr 7 min 45 sec) 
select_counter is 1023
Heartbeat CPU 0 instructions: 14000000 cycles: 36613719 heartbeat IPC: 0.144605 cumulative IPC: 0.128883 (Simulation time: 0 hr 8 min 37 sec) 
select_counter is 1023
Heartbeat CPU 0 instructions: 15000000 cycles: 40548068 heartbeat IPC: 0.254172 cumulative IPC: 0.142979 (Simulation time: 0 hr 9 min 27 sec) 
select_counter is 1023
Heartbeat CPU 0 instructions: 16000000 cycles: 45076456 heartbeat IPC: 0.220829 cumulative IPC: 0.151904 (Simulation time: 0 hr 10 min 12 sec) 
select_counter is 1023
Heartbeat CPU 0 instructions: 17000000 cycles: 49667431 heartbeat IPC: 0.217819 cumulative IPC: 0.158767 (Simulation time: 0 hr 10 min 58 sec) 
select_counter is 1023
Heartbeat CPU 0 instructions: 18000002 cycles: 54242494 heartbeat IPC: 0.218577 cumulative IPC: 0.16439 (Simulation time: 0 hr 11 min 46 sec) 
select_counter is 1023
Heartbeat CPU 0 instructions: 19000002 cycles: 58824297 heartbeat IPC: 0.218255 cumulative IPC: 0.169025 (Simulation time: 0 hr 12 min 31 sec) 
select_counter is 1023
Heartbeat CPU 0 instructions: 20000000 cycles: 63430652 heartbeat IPC: 0.217091 cumulative IPC: 0.172852 (Simulation time: 0 hr 13 min 21 sec) 
select_counter is 1023
Heartbeat CPU 0 instructions: 21000000 cycles: 67650470 heartbeat IPC: 0.236977 cumulative IPC: 0.177212 (Simulation time: 0 hr 14 min 5 sec) 
select_counter is 1023
Heartbeat CPU 0 instructions: 22000001 cycles: 72667714 heartbeat IPC: 0.199313 cumulative IPC: 0.178864 (Simulation time: 0 hr 14 min 57 sec) 
select_counter is 1022
Heartbeat CPU 0 instructions: 23000002 cycles: 80346797 heartbeat IPC: 0.130224 cumulative IPC: 0.173869 (Simulation time: 0 hr 15 min 46 sec) 
select_counter is 1023
Heartbeat CPU 0 instructions: 24000000 cycles: 88315938 heartbeat IPC: 0.125484 cumulative IPC: 0.169209 (Simulation time: 0 hr 16 min 39 sec) 
select_counter is 1022
Heartbeat CPU 0 instructions: 25000000 cycles: 96280126 heartbeat IPC: 0.125562 cumulative IPC: 0.165376 (Simulation time: 0 hr 17 min 31 sec) 
select_counter is 1022
Heartbeat CPU 0 instructions: 26000001 cycles: 103665180 heartbeat IPC: 0.135409 cumulative IPC: 0.16312 (Simulation time: 0 hr 18 min 16 sec) 
select_counter is 1023
Heartbeat CPU 0 instructions: 27000001 cycles: 110356250 heartbeat IPC: 0.149453 cumulative IPC: 0.162247 (Simulation time: 0 hr 19 min 8 sec) 
select_counter is 1023
Heartbeat CPU 0 instructions: 28000000 cycles: 114425536 heartbeat IPC: 0.245743 cumulative IPC: 0.165369 (Simulation time: 0 hr 19 min 59 sec) 
select_counter is 1023
Heartbeat CPU 0 instructions: 29000000 cycles: 118655003 heartbeat IPC: 0.236436 cumulative IPC: 0.168027 (Simulation time: 0 hr 20 min 35 sec) 
select_counter is 1023
Heartbeat CPU 0 instructions: 30000001 cycles: 122889728 heartbeat IPC: 0.236143 cumulative IPC: 0.170486 (Simulation time: 0 hr 21 min 13 sec) 
select_counter is 1021
Heartbeat CPU 0 instructions: 31000000 cycles: 127133851 heartbeat IPC: 0.23562 cumulative IPC: 0.17276 (Simulation time: 0 hr 21 min 59 sec) 
select_counter is 1023
Heartbeat CPU 0 instructions: 32000000 cycles: 131393967 heartbeat IPC: 0.234735 cumulative IPC: 0.174858 (Simulation time: 0 hr 22 min 32 sec) 
select_counter is 1023
Heartbeat CPU 0 instructions: 33000000 cycles: 135722086 heartbeat IPC: 0.231047 cumulative IPC: 0.176727 (Simulation time: 0 hr 23 min 13 sec) 
select_counter is 1022
Heartbeat CPU 0 instructions: 34000000 cycles: 140442148 heartbeat IPC: 0.211862 cumulative IPC: 0.177957 (Simulation time: 0 hr 23 min 55 sec) 
select_counter is 948
Heartbeat CPU 0 instructions: 35000000 cycles: 156239902 heartbeat IPC: 0.0633001 cumulative IPC: 0.165934 (Simulation time: 0 hr 25 min 31 sec) 
select_counter is 1023
Heartbeat CPU 0 instructions: 36000000 cycles: 160205221 heartbeat IPC: 0.252187 cumulative IPC: 0.168146 (Simulation time: 0 hr 26 min 6 sec) 
select_counter is 1023
Heartbeat CPU 0 instructions: 37000003 cycles: 164155683 heartbeat IPC: 0.253136 cumulative IPC: 0.170263 (Simulation time: 0 hr 26 min 41 sec) 
select_counter is 1021
Heartbeat CPU 0 instructions: 38000000 cycles: 168100721 heartbeat IPC: 0.253482 cumulative IPC: 0.172283 (Simulation time: 0 hr 27 min 17 sec) 
select_counter is 1023
Heartbeat CPU 0 instructions: 39000000 cycles: 171936617 heartbeat IPC: 0.260695 cumulative IPC: 0.174322 (Simulation time: 0 hr 27 min 49 sec) 
select_counter is 1022
Heartbeat CPU 0 instructions: 40000000 cycles: 175658913 heartbeat IPC: 0.268651 cumulative IPC: 0.176386 (Simulation time: 0 hr 28 min 21 sec) 
select_counter is 1022
Heartbeat CPU 0 instructions: 41000000 cycles: 179358118 heartbeat IPC: 0.270328 cumulative IPC: 0.178386 (Simulation time: 0 hr 28 min 50 sec) 
select_counter is 1023
Heartbeat CPU 0 instructions: 42000000 cycles: 183084377 heartbeat IPC: 0.268366 cumulative IPC: 0.180275 (Simulation time: 0 hr 29 min 20 sec) 
select_counter is 1023
Heartbeat CPU 0 instructions: 43000002 cycles: 186813288 heartbeat IPC: 0.268175 cumulative IPC: 0.182084 (Simulation time: 0 hr 29 min 53 sec) 
select_counter is 1023
Heartbeat CPU 0 instructions: 44000000 cycles: 190545683 heartbeat IPC: 0.267924 cumulative IPC: 0.183816 (Simulation time: 0 hr 30 min 24 sec) 
select_counter is 1023
Heartbeat CPU 0 instructions: 45000001 cycles: 194248857 heartbeat IPC: 0.270039 cumulative IPC: 0.185508 (Simulation time: 0 hr 30 min 57 sec) 
select_counter is 1023
Heartbeat CPU 0 instructions: 46000001 cycles: 197926849 heartbeat IPC: 0.271887 cumulative IPC: 0.18716 (Simulation time: 0 hr 31 min 32 sec) 
select_counter is 1022
Heartbeat CPU 0 instructions: 47000001 cycles: 201605586 heartbeat IPC: 0.271832 cumulative IPC: 0.188749 (Simulation time: 0 hr 32 min 5 sec) 
select_counter is 1022
Heartbeat CPU 0 instructions: 48000000 cycles: 205264453 heartbeat IPC: 0.273308 cumulative IPC: 0.190298 (Simulation time: 0 hr 32 min 40 sec) 
select_counter is 1023
Heartbeat CPU 0 instructions: 49000000 cycles: 208948089 heartbeat IPC: 0.271471 cumulative IPC: 0.191768 (Simulation time: 0 hr 33 min 10 sec) 
select_counter is 1023
Heartbeat CPU 0 instructions: 50000003 cycles: 212624257 heartbeat IPC: 0.272023 cumulative IPC: 0.193193 (Simulation time: 0 hr 33 min 43 sec) 
select_counter is 1023
Heartbeat CPU 0 instructions: 51000001 cycles: 216303114 heartbeat IPC: 0.271823 cumulative IPC: 0.194566 (Simulation time: 0 hr 34 min 14 sec) 
select_counter is 1023
Heartbeat CPU 0 instructions: 52000000 cycles: 219954102 heartbeat IPC: 0.273898 cumulative IPC: 0.195917 (Simulation time: 0 hr 34 min 49 sec) 
select_counter is 1023
Heartbeat CPU 0 instructions: 53000001 cycles: 223622636 heartbeat IPC: 0.272589 cumulative IPC: 0.197207 (Simulation time: 0 hr 35 min 25 sec) 
select_counter is 1023
Heartbeat CPU 0 instructions: 54000000 cycles: 227281277 heartbeat IPC: 0.273325 cumulative IPC: 0.198463 (Simulation time: 0 hr 35 min 56 sec) 
select_counter is 1022
Heartbeat CPU 0 instructions: 55000000 cycles: 230956259 heartbeat IPC: 0.27211 cumulative IPC: 0.199664 (Simulation time: 0 hr 36 min 28 sec) 
select_counter is 1022
Heartbeat CPU 0 instructions: 56000000 cycles: 234624309 heartbeat IPC: 0.272624 cumulative IPC: 0.200833 (Simulation time: 0 hr 37 min 3 sec) 
select_counter is 1023
Heartbeat CPU 0 instructions: 57000002 cycles: 238245165 heartbeat IPC: 0.276178 cumulative IPC: 0.202005 (Simulation time: 0 hr 37 min 34 sec) 
select_counter is 1020
Heartbeat CPU 0 instructions: 58000001 cycles: 241864709 heartbeat IPC: 0.276278 cumulative IPC: 0.203143 (Simulation time: 0 hr 38 min 5 sec) 
select_counter is 1022
Heartbeat CPU 0 instructions: 59000003 cycles: 245455559 heartbeat IPC: 0.278486 cumulative IPC: 0.204271 (Simulation time: 0 hr 38 min 36 sec) 
select_counter is 1023
Heartbeat CPU 0 instructions: 60000000 cycles: 249044154 heartbeat IPC: 0.27866 cumulative IPC: 0.205367 (Simulation time: 0 hr 39 min 9 sec) 
select_counter is 1022
Heartbeat CPU 0 instructions: 61000000 cycles: 252626092 heartbeat IPC: 0.279178 cumulative IPC: 0.206437 (Simulation time: 0 hr 39 min 36 sec) 
select_counter is 1022
Heartbeat CPU 0 instructions: 62000003 cycles: 256195120 heartbeat IPC: 0.280189 cumulative IPC: 0.207488 (Simulation time: 0 hr 40 min 3 sec) 
select_counter is 1023
Heartbeat CPU 0 instructions: 63000001 cycles: 259785942 heartbeat IPC: 0.278487 cumulative IPC: 0.208491 (Simulation time: 0 hr 40 min 32 sec) 
select_counter is 1021
Heartbeat CPU 0 instructions: 64000000 cycles: 263398494 heartbeat IPC: 0.276812 cumulative IPC: 0.209448 (Simulation time: 0 hr 40 min 59 sec) 
select_counter is 1023
Heartbeat CPU 0 instructions: 65000000 cycles: 267067382 heartbeat IPC: 0.272562 cumulative IPC: 0.210333 (Simulation time: 0 hr 41 min 28 sec) 
select_counter is 1022
Heartbeat CPU 0 instructions: 66000000 cycles: 270762647 heartbeat IPC: 0.270617 cumulative IPC: 0.211173 (Simulation time: 0 hr 41 min 56 sec) 
select_counter is 1019
Heartbeat CPU 0 instructions: 67000001 cycles: 274619403 heartbeat IPC: 0.259286 cumulative IPC: 0.211863 (Simulation time: 0 hr 42 min 24 sec) 
select_counter is 1023
Heartbeat CPU 0 instructions: 68000000 cycles: 278501090 heartbeat IPC: 0.25762 cumulative IPC: 0.212514 (Simulation time: 0 hr 42 min 49 sec) 
select_counter is 1023
Heartbeat CPU 0 instructions: 69000003 cycles: 282374604 heartbeat IPC: 0.258164 cumulative IPC: 0.213153 (Simulation time: 0 hr 43 min 16 sec) 
select_counter is 1023
Heartbeat CPU 0 instructions: 70000000 cycles: 286288182 heartbeat IPC: 0.25552 cumulative IPC: 0.213743 (Simulation time: 0 hr 43 min 41 sec) 
select_counter is 1023
Heartbeat CPU 0 instructions: 71000002 cycles: 289995483 heartbeat IPC: 0.269739 cumulative IPC: 0.214473 (Simulation time: 0 hr 44 min 9 sec) 
select_counter is 1023
Heartbeat CPU 0 instructions: 72000000 cycles: 293666740 heartbeat IPC: 0.272386 cumulative IPC: 0.215211 (Simulation time: 0 hr 44 min 34 sec) 
select_counter is 1023
Heartbeat CPU 0 instructions: 73000003 cycles: 297339174 heartbeat IPC: 0.2723 cumulative IPC: 0.21593 (Simulation time: 0 hr 44 min 57 sec) 
select_counter is 1023
Heartbeat CPU 0 instructions: 74000000 cycles: 301037637 heartbeat IPC: 0.270382 cumulative IPC: 0.216611 (Simulation time: 0 hr 45 min 19 sec) 
select_counter is 1023
Heartbeat CPU 0 instructions: 75000000 cycles: 304740395 heartbeat IPC: 0.270069 cumulative IPC: 0.217273 (Simulation time: 0 hr 45 min 41 sec) 
select_counter is 1023
Heartbeat CPU 0 instructions: 76000000 cycles: 308457833 heartbeat IPC: 0.269002 cumulative IPC: 0.217908 (Simulation time: 0 hr 46 min 2 sec) 
select_counter is 1023
Heartbeat CPU 0 instructions: 77000000 cycles: 312146596 heartbeat IPC: 0.271094 cumulative IPC: 0.218548 (Simulation time: 0 hr 46 min 26 sec) 
select_counter is 1023
Heartbeat CPU 0 instructions: 78000003 cycles: 315787404 heartbeat IPC: 0.274665 cumulative IPC: 0.219207 (Simulation time: 0 hr 46 min 46 sec) 
select_counter is 1023
Heartbeat CPU 0 instructions: 79000000 cycles: 319453991 heartbeat IPC: 0.272732 cumulative IPC: 0.219832 (Simulation time: 0 hr 47 min 6 sec) 
select_counter is 1023
Heartbeat CPU 0 instructions: 80000000 cycles: 323104377 heartbeat IPC: 0.273944 cumulative IPC: 0.220454 (Simulation time: 0 hr 47 min 25 sec) 
select_counter is 1022
Heartbeat CPU 0 instructions: 81000001 cycles: 326748317 heartbeat IPC: 0.274429 cumulative IPC: 0.221066 (Simulation time: 0 hr 47 min 41 sec) 
select_counter is 1023
Heartbeat CPU 0 instructions: 82000000 cycles: 330396194 heartbeat IPC: 0.274132 cumulative IPC: 0.221662 (Simulation time: 0 hr 47 min 56 sec) 
select_counter is 1022
Heartbeat CPU 0 instructions: 83000003 cycles: 334074644 heartbeat IPC: 0.271854 cumulative IPC: 0.222224 (Simulation time: 0 hr 48 min 10 sec) 
select_counter is 1023
Heartbeat CPU 0 instructions: 84000000 cycles: 337729565 heartbeat IPC: 0.273603 cumulative IPC: 0.22279 (Simulation time: 0 hr 48 min 24 sec) 
select_counter is 1021
Heartbeat CPU 0 instructions: 85000000 cycles: 341373875 heartbeat IPC: 0.2744 cumulative IPC: 0.22335 (Simulation time: 0 hr 48 min 38 sec) 
select_counter is 1022
Heartbeat CPU 0 instructions: 86000001 cycles: 345025363 heartbeat IPC: 0.273861 cumulative IPC: 0.223893 (Simulation time: 0 hr 48 min 51 sec) 
select_counter is 1023
Heartbeat CPU 0 instructions: 87000001 cycles: 348687032 heartbeat IPC: 0.2731 cumulative IPC: 0.224418 (Simulation time: 0 hr 49 min 5 sec) 
select_counter is 1022
Heartbeat CPU 0 instructions: 88000000 cycles: 352332006 heartbeat IPC: 0.27435 cumulative IPC: 0.224943 (Simulation time: 0 hr 49 min 19 sec) 
select_counter is 1023
Heartbeat CPU 0 instructions: 89000003 cycles: 355980550 heartbeat IPC: 0.274083 cumulative IPC: 0.225455 (Simulation time: 0 hr 49 min 33 sec) 
select_counter is 1023
Heartbeat CPU 0 instructions: 90000000 cycles: 359629955 heartbeat IPC: 0.274016 cumulative IPC: 0.225955 (Simulation time: 0 hr 49 min 48 sec) 
select_counter is 1022
Heartbeat CPU 0 instructions: 91000000 cycles: 363266005 heartbeat IPC: 0.275024 cumulative IPC: 0.226454 (Simulation time: 0 hr 50 min 1 sec) 
select_counter is 1023
Heartbeat CPU 0 instructions: 92000000 cycles: 366871229 heartbeat IPC: 0.277375 cumulative IPC: 0.226962 (Simulation time: 0 hr 50 min 12 sec) 
select_counter is 1021
Heartbeat CPU 0 instructions: 93000001 cycles: 370471152 heartbeat IPC: 0.277784 cumulative IPC: 0.227464 (Simulation time: 0 hr 50 min 24 sec) 
select_counter is 1023
Heartbeat CPU 0 instructions: 94000003 cycles: 374068247 heartbeat IPC: 0.278003 cumulative IPC: 0.227957 (Simulation time: 0 hr 50 min 35 sec) 
select_counter is 1023
Heartbeat CPU 0 instructions: 95000002 cycles: 377670199 heartbeat IPC: 0.277627 cumulative IPC: 0.228438 (Simulation time: 0 hr 50 min 46 sec) 
select_counter is 1022
Heartbeat CPU 0 instructions: 96000000 cycles: 381254216 heartbeat IPC: 0.279016 cumulative IPC: 0.22892 (Simulation time: 0 hr 50 min 56 sec) 
select_counter is 1023
Heartbeat CPU 0 instructions: 97000000 cycles: 384828645 heartbeat IPC: 0.279765 cumulative IPC: 0.2294 (Simulation time: 0 hr 51 min 6 sec) 
select_counter is 1023
Heartbeat CPU 0 instructions: 98000000 cycles: 388410438 heartbeat IPC: 0.27919 cumulative IPC: 0.229865 (Simulation time: 0 hr 51 min 16 sec) 
select_counter is 1023
Heartbeat CPU 0 instructions: 99000000 cycles: 392006914 heartbeat IPC: 0.27805 cumulative IPC: 0.230314 (Simulation time: 0 hr 51 min 25 sec) 
select_counter is 1023
Heartbeat CPU 0 instructions: 100000000 cycles: 395663195 heartbeat IPC: 0.273502 cumulative IPC: 0.230719 (Simulation time: 0 hr 51 min 34 sec) 
select_counter is 1022
Heartbeat CPU 0 instructions: 101000000 cycles: 399287697 heartbeat IPC: 0.2759 cumulative IPC: 0.231135 (Simulation time: 0 hr 51 min 43 sec) 
select_counter is 1023
Heartbeat CPU 0 instructions: 102000000 cycles: 403529648 heartbeat IPC: 0.235741 cumulative IPC: 0.231184 (Simulation time: 0 hr 51 min 50 sec) 
select_counter is 1021
Heartbeat CPU 0 instructions: 103000002 cycles: 408094535 heartbeat IPC: 0.219064 cumulative IPC: 0.231046 (Simulation time: 0 hr 51 min 57 sec) 
select_counter is 1023
Heartbeat CPU 0 instructions: 104000000 cycles: 412417056 heartbeat IPC: 0.231346 cumulative IPC: 0.231049 (Simulation time: 0 hr 52 min 4 sec) 
select_counter is 1022
Heartbeat CPU 0 instructions: 105000000 cycles: 416605954 heartbeat IPC: 0.238726 cumulative IPC: 0.231128 (Simulation time: 0 hr 52 min 9 sec) 
select_counter is 1023
Heartbeat CPU 0 instructions: 106000002 cycles: 420801625 heartbeat IPC: 0.238341 cumulative IPC: 0.231201 (Simulation time: 0 hr 52 min 14 sec) 
select_counter is 1022
Heartbeat CPU 0 instructions: 107000000 cycles: 425037471 heartbeat IPC: 0.23608 cumulative IPC: 0.23125 (Simulation time: 0 hr 52 min 18 sec) 
select_counter is 1023
Heartbeat CPU 0 instructions: 108000000 cycles: 429161789 heartbeat IPC: 0.242464 cumulative IPC: 0.231359 (Simulation time: 0 hr 52 min 22 sec) 
select_counter is 1023
Heartbeat CPU 0 instructions: 109000000 cycles: 433273226 heartbeat IPC: 0.243224 cumulative IPC: 0.231473 (Simulation time: 0 hr 52 min 26 sec) 
select_counter is 1022
Heartbeat CPU 0 instructions: 110000002 cycles: 437394997 heartbeat IPC: 0.242615 cumulative IPC: 0.231579 (Simulation time: 0 hr 52 min 30 sec) 
select_counter is 1023
Finished CPU 0 instructions: 100000001 cycles: 431817205 cummulative IPC: 0.231579 (Simulation time: 0 hr 52 min 30 sec) 

ChampSim completed all CPUs

Region of Interest Statistics

CPU 0 cummulative IPC: 0.231579 instructions: 100000001 cycles: 431817205
LLC TOTAL     ACCESS:    1984334  HIT:     262705  MISS:    1721629
LLC LOAD      ACCESS:    1160300  HIT:      50799  MISS:    1109501
LLC RFO       ACCESS:     340865  HIT:      11450  MISS:     329415
LLC PREFETCH  ACCESS:          0  HIT:          0  MISS:          0
LLC WRITEBACK ACCESS:     483169  HIT:     200456  MISS:     282713
Ship samples: 
4, 60, 73, 99, 143, 177, 210, 242, 265, 310, 326, 377, 398, 445, 465, 506, 541, 566, 581, 624, 657, 694, 731, 764, 798, 811, 846, 876, 925, 934, 967, 996, 1048, 1067, 1108, 1138, 1180, 1208, 1220, 1263, 1288, 1316, 1344, 1386, 1415, 1457, 1501, 1504, 1537, 1579, 1616, 1657, 1681, 1724, 1753, 1782, 1815, 1837, 1869, 1888, 1928, 1954, 1993, 2047, 
Lime duel samples: 
16, 110, 194, 309, 391, 510, 582, 673, 772, 869, 974, 1082, 1157, 1276, 1357, 1464, 1559, 1648, 1742, 1827, 1925, 
Lime samples: 
16, 110, 194, 309, 391, 510, 582, 673, 772, 869, 974, 1082, 1157, 1276, 1357, 1464, 1559, 1648, 1742, 1827, 1925, 
Insertion Distribution: 
	LOAD 1469 0 0 0 0 0 3070 36716 
	RFO 1220 0 0 0 0 0 1670 11942 
	PREF 0 0 0 0 0 0 0 0 
	WRITEBACK 0 0 0 0 0 0 0 15924 
Total Prefetch Downgrades: 0
