
*** ChampSim Multicore Out-of-Order Simulator ***

Warmup Instructions: 10000000
Simulation Instructions: 100000000
Configuration: 1
Number of CPUs: 1
LLC sets: 2048
LLC ways: 16
Off-chip DRAM Channels: 1 Width: 64-bit Data Rate: 1600 MT/s

CPU 0 runs /datasets/cs240c-wi22-a00-public/data/Assignment2-gz/sphinx3_883B.trace.gz
Heartbeat CPU 0 instructions: 1000003 cycles: 413061 heartbeat IPC: 2.42096 cumulative IPC: 2.42096 (Simulation time: 0 hr 0 min 26 sec) 
select_counter is 845
Heartbeat CPU 0 instructions: 2000000 cycles: 821532 heartbeat IPC: 2.44815 cumulative IPC: 2.43448 (Simulation time: 0 hr 0 min 54 sec) 
select_counter is 1023
Heartbeat CPU 0 instructions: 3000003 cycles: 1294920 heartbeat IPC: 2.11244 cumulative IPC: 2.31675 (Simulation time: 0 hr 1 min 20 sec) 
select_counter is 1022
Heartbeat CPU 0 instructions: 4000000 cycles: 1633292 heartbeat IPC: 2.95532 cumulative IPC: 2.44904 (Simulation time: 0 hr 1 min 44 sec) 
select_counter is 1023
Heartbeat CPU 0 instructions: 5000000 cycles: 1987094 heartbeat IPC: 2.82644 cumulative IPC: 2.51624 (Simulation time: 0 hr 2 min 10 sec) 
select_counter is 1022
Heartbeat CPU 0 instructions: 6000000 cycles: 2399986 heartbeat IPC: 2.42194 cumulative IPC: 2.50001 (Simulation time: 0 hr 2 min 35 sec) 
select_counter is 1021
Heartbeat CPU 0 instructions: 7000002 cycles: 2807805 heartbeat IPC: 2.45207 cumulative IPC: 2.49305 (Simulation time: 0 hr 3 min 1 sec) 
select_counter is 1023
Heartbeat CPU 0 instructions: 8000000 cycles: 3281942 heartbeat IPC: 2.10909 cumulative IPC: 2.43758 (Simulation time: 0 hr 3 min 26 sec) 
select_counter is 1019
Heartbeat CPU 0 instructions: 9000001 cycles: 3620372 heartbeat IPC: 2.95482 cumulative IPC: 2.48593 (Simulation time: 0 hr 3 min 51 sec) 
select_counter is 1022
Heartbeat CPU 0 instructions: 10000000 cycles: 3973734 heartbeat IPC: 2.82996 cumulative IPC: 2.51652 (Simulation time: 0 hr 4 min 18 sec) 
select_counter is 1023

Warmup complete CPU 0 instructions: 10000004 cycles: 3973735 (Simulation time: 0 hr 4 min 18 sec) 

Heartbeat CPU 0 instructions: 11000002 cycles: 6375616 heartbeat IPC: 0.416341 cumulative IPC: 0.41634 (Simulation time: 0 hr 4 min 56 sec) 
select_counter is 1023
Heartbeat CPU 0 instructions: 12000000 cycles: 8728139 heartbeat IPC: 0.425075 cumulative IPC: 0.420662 (Simulation time: 0 hr 5 min 31 sec) 
select_counter is 1023
Heartbeat CPU 0 instructions: 13000001 cycles: 10608640 heartbeat IPC: 0.531774 cumulative IPC: 0.452154 (Simulation time: 0 hr 6 min 0 sec) 
select_counter is 1005
Heartbeat CPU 0 instructions: 14000001 cycles: 12249564 heartbeat IPC: 0.609413 cumulative IPC: 0.483335 (Simulation time: 0 hr 6 min 34 sec) 
select_counter is 1002
Heartbeat CPU 0 instructions: 15000000 cycles: 13959122 heartbeat IPC: 0.584946 cumulative IPC: 0.500731 (Simulation time: 0 hr 7 min 7 sec) 
select_counter is 1023
Heartbeat CPU 0 instructions: 16000000 cycles: 16267223 heartbeat IPC: 0.433257 cumulative IPC: 0.488063 (Simulation time: 0 hr 7 min 41 sec) 
select_counter is 1023
Heartbeat CPU 0 instructions: 17000000 cycles: 18502006 heartbeat IPC: 0.447471 cumulative IPC: 0.481819 (Simulation time: 0 hr 8 min 15 sec) 
select_counter is 1023
Heartbeat CPU 0 instructions: 18000002 cycles: 20504856 heartbeat IPC: 0.49929 cumulative IPC: 0.483936 (Simulation time: 0 hr 8 min 48 sec) 
select_counter is 1009
Heartbeat CPU 0 instructions: 19000000 cycles: 22014828 heartbeat IPC: 0.662263 cumulative IPC: 0.498861 (Simulation time: 0 hr 9 min 20 sec) 
select_counter is 1009
Heartbeat CPU 0 instructions: 20000000 cycles: 23643938 heartbeat IPC: 0.613832 cumulative IPC: 0.508383 (Simulation time: 0 hr 9 min 53 sec) 
select_counter is 1023
Heartbeat CPU 0 instructions: 21000000 cycles: 25953710 heartbeat IPC: 0.432943 cumulative IPC: 0.500455 (Simulation time: 0 hr 10 min 27 sec) 
select_counter is 1023
Heartbeat CPU 0 instructions: 22000002 cycles: 28223553 heartbeat IPC: 0.44056 cumulative IPC: 0.494849 (Simulation time: 0 hr 11 min 2 sec) 
select_counter is 1023
Heartbeat CPU 0 instructions: 23000003 cycles: 30500997 heartbeat IPC: 0.439089 cumulative IPC: 0.490062 (Simulation time: 0 hr 11 min 33 sec) 
select_counter is 1023
Heartbeat CPU 0 instructions: 24000000 cycles: 31977110 heartbeat IPC: 0.677453 cumulative IPC: 0.49994 (Simulation time: 0 hr 12 min 6 sec) 
select_counter is 1023
Heartbeat CPU 0 instructions: 25000003 cycles: 33615882 heartbeat IPC: 0.610215 cumulative IPC: 0.506036 (Simulation time: 0 hr 12 min 37 sec) 
select_counter is 1018
Heartbeat CPU 0 instructions: 26000001 cycles: 35622613 heartbeat IPC: 0.498322 cumulative IPC: 0.505547 (Simulation time: 0 hr 13 min 9 sec) 
select_counter is 1023
Heartbeat CPU 0 instructions: 27000001 cycles: 37854472 heartbeat IPC: 0.448057 cumulative IPC: 0.50176 (Simulation time: 0 hr 13 min 40 sec) 
select_counter is 1023
Heartbeat CPU 0 instructions: 28000000 cycles: 40066277 heartbeat IPC: 0.452119 cumulative IPC: 0.498718 (Simulation time: 0 hr 14 min 13 sec) 
select_counter is 1023
Heartbeat CPU 0 instructions: 29000000 cycles: 41644741 heartbeat IPC: 0.633527 cumulative IPC: 0.504367 (Simulation time: 0 hr 14 min 43 sec) 
select_counter is 1004
Heartbeat CPU 0 instructions: 30000000 cycles: 43272237 heartbeat IPC: 0.614441 cumulative IPC: 0.508925 (Simulation time: 0 hr 15 min 15 sec) 
select_counter is 992
Heartbeat CPU 0 instructions: 31000002 cycles: 45164950 heartbeat IPC: 0.528343 cumulative IPC: 0.509817 (Simulation time: 0 hr 15 min 47 sec) 
select_counter is 1023
Heartbeat CPU 0 instructions: 32000000 cycles: 47309964 heartbeat IPC: 0.466196 cumulative IPC: 0.507658 (Simulation time: 0 hr 16 min 21 sec) 
select_counter is 1023
Heartbeat CPU 0 instructions: 33000000 cycles: 49417593 heartbeat IPC: 0.474467 cumulative IPC: 0.506119 (Simulation time: 0 hr 16 min 52 sec) 
select_counter is 1023
Heartbeat CPU 0 instructions: 34000000 cycles: 51109311 heartbeat IPC: 0.591115 cumulative IPC: 0.509169 (Simulation time: 0 hr 17 min 24 sec) 
select_counter is 1009
Heartbeat CPU 0 instructions: 35000003 cycles: 52725038 heartbeat IPC: 0.618918 cumulative IPC: 0.512807 (Simulation time: 0 hr 17 min 56 sec) 
select_counter is 988
Heartbeat CPU 0 instructions: 36000000 cycles: 54590915 heartbeat IPC: 0.535939 cumulative IPC: 0.51366 (Simulation time: 0 hr 18 min 28 sec) 
select_counter is 1023
Heartbeat CPU 0 instructions: 37000001 cycles: 56736602 heartbeat IPC: 0.466052 cumulative IPC: 0.511723 (Simulation time: 0 hr 19 min 2 sec) 
select_counter is 1023
Heartbeat CPU 0 instructions: 38000000 cycles: 58834419 heartbeat IPC: 0.476686 cumulative IPC: 0.510384 (Simulation time: 0 hr 19 min 37 sec) 
select_counter is 1023
Heartbeat CPU 0 instructions: 39000000 cycles: 60497491 heartbeat IPC: 0.601297 cumulative IPC: 0.513059 (Simulation time: 0 hr 20 min 8 sec) 
select_counter is 1018
Heartbeat CPU 0 instructions: 40000000 cycles: 62095066 heartbeat IPC: 0.625949 cumulative IPC: 0.516162 (Simulation time: 0 hr 20 min 37 sec) 
select_counter is 991
Heartbeat CPU 0 instructions: 41000003 cycles: 63943081 heartbeat IPC: 0.541123 cumulative IPC: 0.516931 (Simulation time: 0 hr 21 min 4 sec) 
select_counter is 1023
Heartbeat CPU 0 instructions: 42000000 cycles: 66123496 heartbeat IPC: 0.458627 cumulative IPC: 0.514885 (Simulation time: 0 hr 21 min 30 sec) 
select_counter is 1023
Heartbeat CPU 0 instructions: 43000003 cycles: 68249855 heartbeat IPC: 0.470289 cumulative IPC: 0.51341 (Simulation time: 0 hr 21 min 58 sec) 
select_counter is 1023
Heartbeat CPU 0 instructions: 44000000 cycles: 69822794 heartbeat IPC: 0.635751 cumulative IPC: 0.516332 (Simulation time: 0 hr 22 min 24 sec) 
select_counter is 1022
Heartbeat CPU 0 instructions: 45000002 cycles: 71403454 heartbeat IPC: 0.632648 cumulative IPC: 0.519059 (Simulation time: 0 hr 22 min 52 sec) 
select_counter is 985
Heartbeat CPU 0 instructions: 46000001 cycles: 73278087 heartbeat IPC: 0.533437 cumulative IPC: 0.519448 (Simulation time: 0 hr 23 min 22 sec) 
select_counter is 1023
Heartbeat CPU 0 instructions: 47000002 cycles: 75452128 heartbeat IPC: 0.459973 cumulative IPC: 0.517639 (Simulation time: 0 hr 23 min 53 sec) 
select_counter is 1023
Heartbeat CPU 0 instructions: 48000000 cycles: 77607275 heartbeat IPC: 0.464005 cumulative IPC: 0.516069 (Simulation time: 0 hr 24 min 24 sec) 
select_counter is 1022
Heartbeat CPU 0 instructions: 49000001 cycles: 79073841 heartbeat IPC: 0.681866 cumulative IPC: 0.519307 (Simulation time: 0 hr 24 min 52 sec) 
select_counter is 1018
Heartbeat CPU 0 instructions: 50000003 cycles: 80641942 heartbeat IPC: 0.637715 cumulative IPC: 0.521729 (Simulation time: 0 hr 25 min 21 sec) 
select_counter is 985
Heartbeat CPU 0 instructions: 51000003 cycles: 82532949 heartbeat IPC: 0.528819 cumulative IPC: 0.521899 (Simulation time: 0 hr 25 min 49 sec) 
select_counter is 1023
Heartbeat CPU 0 instructions: 52000000 cycles: 84647131 heartbeat IPC: 0.472995 cumulative IPC: 0.520618 (Simulation time: 0 hr 26 min 24 sec) 
select_counter is 1023
Heartbeat CPU 0 instructions: 53000000 cycles: 86877209 heartbeat IPC: 0.448415 cumulative IPC: 0.518675 (Simulation time: 0 hr 26 min 56 sec) 
select_counter is 1022
Heartbeat CPU 0 instructions: 54000003 cycles: 88239446 heartbeat IPC: 0.734089 cumulative IPC: 0.522158 (Simulation time: 0 hr 27 min 24 sec) 
select_counter is 1023
Heartbeat CPU 0 instructions: 55000002 cycles: 89631367 heartbeat IPC: 0.718431 cumulative IPC: 0.525347 (Simulation time: 0 hr 27 min 52 sec) 
select_counter is 1021
Heartbeat CPU 0 instructions: 56000000 cycles: 91206966 heartbeat IPC: 0.634678 cumulative IPC: 0.527322 (Simulation time: 0 hr 28 min 22 sec) 
select_counter is 987
Heartbeat CPU 0 instructions: 57000002 cycles: 93038225 heartbeat IPC: 0.546073 cumulative IPC: 0.527707 (Simulation time: 0 hr 28 min 54 sec) 
select_counter is 1023
Heartbeat CPU 0 instructions: 58000001 cycles: 94369928 heartbeat IPC: 0.750917 cumulative IPC: 0.530996 (Simulation time: 0 hr 29 min 21 sec) 
select_counter is 1021
Heartbeat CPU 0 instructions: 59000001 cycles: 95847705 heartbeat IPC: 0.676692 cumulative IPC: 0.533339 (Simulation time: 0 hr 29 min 55 sec) 
select_counter is 1007
Heartbeat CPU 0 instructions: 60000000 cycles: 97497772 heartbeat IPC: 0.606035 cumulative IPC: 0.534622 (Simulation time: 0 hr 30 min 22 sec) 
select_counter is 1023
Heartbeat CPU 0 instructions: 61000001 cycles: 99063898 heartbeat IPC: 0.638519 cumulative IPC: 0.536333 (Simulation time: 0 hr 30 min 51 sec) 
select_counter is 1023
Heartbeat CPU 0 instructions: 62000001 cycles: 100148272 heartbeat IPC: 0.922191 cumulative IPC: 0.540684 (Simulation time: 0 hr 31 min 19 sec) 
select_counter is 1023
Heartbeat CPU 0 instructions: 63000003 cycles: 101517611 heartbeat IPC: 0.730281 cumulative IPC: 0.543345 (Simulation time: 0 hr 31 min 47 sec) 
select_counter is 1023
Heartbeat CPU 0 instructions: 64000000 cycles: 103286869 heartbeat IPC: 0.565207 cumulative IPC: 0.543735 (Simulation time: 0 hr 32 min 18 sec) 
select_counter is 1023
Heartbeat CPU 0 instructions: 65000003 cycles: 104393570 heartbeat IPC: 0.903589 cumulative IPC: 0.547701 (Simulation time: 0 hr 32 min 46 sec) 
select_counter is 1023
Heartbeat CPU 0 instructions: 66000002 cycles: 105608103 heartbeat IPC: 0.823361 cumulative IPC: 0.550995 (Simulation time: 0 hr 33 min 11 sec) 
select_counter is 1016
Heartbeat CPU 0 instructions: 67000000 cycles: 107585120 heartbeat IPC: 0.505812 cumulative IPC: 0.550133 (Simulation time: 0 hr 33 min 41 sec) 
select_counter is 1023
Heartbeat CPU 0 instructions: 68000000 cycles: 109912439 heartbeat IPC: 0.429679 cumulative IPC: 0.547486 (Simulation time: 0 hr 34 min 12 sec) 
select_counter is 1023
Heartbeat CPU 0 instructions: 69000003 cycles: 111077557 heartbeat IPC: 0.858285 cumulative IPC: 0.550867 (Simulation time: 0 hr 34 min 39 sec) 
select_counter is 1023
Heartbeat CPU 0 instructions: 70000001 cycles: 112363156 heartbeat IPC: 0.777846 cumulative IPC: 0.55356 (Simulation time: 0 hr 35 min 7 sec) 
select_counter is 1003
Heartbeat CPU 0 instructions: 71000002 cycles: 114267382 heartbeat IPC: 0.525148 cumulative IPC: 0.553069 (Simulation time: 0 hr 35 min 36 sec) 
select_counter is 1023
Heartbeat CPU 0 instructions: 72000000 cycles: 116430909 heartbeat IPC: 0.462207 cumulative IPC: 0.551321 (Simulation time: 0 hr 36 min 9 sec) 
select_counter is 1023
Heartbeat CPU 0 instructions: 73000000 cycles: 117573965 heartbeat IPC: 0.874848 cumulative IPC: 0.554576 (Simulation time: 0 hr 36 min 39 sec) 
select_counter is 1023
Heartbeat CPU 0 instructions: 74000002 cycles: 118847848 heartbeat IPC: 0.785003 cumulative IPC: 0.557132 (Simulation time: 0 hr 37 min 7 sec) 
select_counter is 1012
Heartbeat CPU 0 instructions: 75000000 cycles: 120797160 heartbeat IPC: 0.513 cumulative IPC: 0.556395 (Simulation time: 0 hr 37 min 39 sec) 
select_counter is 1023
Heartbeat CPU 0 instructions: 76000000 cycles: 122715464 heartbeat IPC: 0.521294 cumulative IPC: 0.555828 (Simulation time: 0 hr 38 min 5 sec) 
select_counter is 1023
Heartbeat CPU 0 instructions: 77000000 cycles: 123831628 heartbeat IPC: 0.895926 cumulative IPC: 0.558995 (Simulation time: 0 hr 38 min 34 sec) 
select_counter is 1023
Heartbeat CPU 0 instructions: 78000003 cycles: 125142880 heartbeat IPC: 0.762632 cumulative IPC: 0.561199 (Simulation time: 0 hr 39 min 0 sec) 
select_counter is 1023
Heartbeat CPU 0 instructions: 79000001 cycles: 127267577 heartbeat IPC: 0.470654 cumulative IPC: 0.559639 (Simulation time: 0 hr 39 min 25 sec) 
select_counter is 1022
Heartbeat CPU 0 instructions: 80000000 cycles: 128944131 heartbeat IPC: 0.596461 cumulative IPC: 0.560133 (Simulation time: 0 hr 39 min 48 sec) 
select_counter is 1020
Heartbeat CPU 0 instructions: 81000000 cycles: 130049338 heartbeat IPC: 0.904808 cumulative IPC: 0.563154 (Simulation time: 0 hr 40 min 13 sec) 
select_counter is 1022
Heartbeat CPU 0 instructions: 82000000 cycles: 131454360 heartbeat IPC: 0.711733 cumulative IPC: 0.564792 (Simulation time: 0 hr 40 min 36 sec) 
select_counter is 1023
Heartbeat CPU 0 instructions: 83000001 cycles: 133655983 heartbeat IPC: 0.454211 cumulative IPC: 0.562914 (Simulation time: 0 hr 40 min 59 sec) 
select_counter is 1023
Heartbeat CPU 0 instructions: 84000000 cycles: 134848356 heartbeat IPC: 0.838663 cumulative IPC: 0.565427 (Simulation time: 0 hr 41 min 21 sec) 
select_counter is 1023
Heartbeat CPU 0 instructions: 85000001 cycles: 136056863 heartbeat IPC: 0.827468 cumulative IPC: 0.567824 (Simulation time: 0 hr 41 min 43 sec) 
select_counter is 1003
Heartbeat CPU 0 instructions: 86000001 cycles: 137761456 heartbeat IPC: 0.58665 cumulative IPC: 0.568064 (Simulation time: 0 hr 42 min 8 sec) 
select_counter is 1023
Heartbeat CPU 0 instructions: 87000000 cycles: 139469965 heartbeat IPC: 0.585305 cumulative IPC: 0.568281 (Simulation time: 0 hr 42 min 28 sec) 
select_counter is 1023
Heartbeat CPU 0 instructions: 88000000 cycles: 140528252 heartbeat IPC: 0.944923 cumulative IPC: 0.5712 (Simulation time: 0 hr 42 min 48 sec) 
select_counter is 1023
Heartbeat CPU 0 instructions: 89000001 cycles: 141865661 heartbeat IPC: 0.747715 cumulative IPC: 0.572912 (Simulation time: 0 hr 43 min 9 sec) 
select_counter is 1023
Heartbeat CPU 0 instructions: 90000000 cycles: 143891773 heartbeat IPC: 0.493556 cumulative IPC: 0.571763 (Simulation time: 0 hr 43 min 30 sec) 
select_counter is 1023
Heartbeat CPU 0 instructions: 91000003 cycles: 145215485 heartbeat IPC: 0.755454 cumulative IPC: 0.573485 (Simulation time: 0 hr 43 min 49 sec) 
select_counter is 1023
Heartbeat CPU 0 instructions: 92000000 cycles: 146382827 heartbeat IPC: 0.856644 cumulative IPC: 0.575806 (Simulation time: 0 hr 44 min 7 sec) 
select_counter is 1023
Heartbeat CPU 0 instructions: 93000000 cycles: 147534112 heartbeat IPC: 0.868595 cumulative IPC: 0.578154 (Simulation time: 0 hr 44 min 26 sec) 
select_counter is 1020
Heartbeat CPU 0 instructions: 94000002 cycles: 148991895 heartbeat IPC: 0.685975 cumulative IPC: 0.579238 (Simulation time: 0 hr 44 min 44 sec) 
select_counter is 1022
Heartbeat CPU 0 instructions: 95000001 cycles: 151067521 heartbeat IPC: 0.481782 cumulative IPC: 0.577863 (Simulation time: 0 hr 45 min 4 sec) 
select_counter is 1023
Heartbeat CPU 0 instructions: 96000000 cycles: 152204157 heartbeat IPC: 0.879788 cumulative IPC: 0.580178 (Simulation time: 0 hr 45 min 20 sec) 
select_counter is 1023
Heartbeat CPU 0 instructions: 97000000 cycles: 153464436 heartbeat IPC: 0.793475 cumulative IPC: 0.581976 (Simulation time: 0 hr 45 min 37 sec) 
select_counter is 1023
Heartbeat CPU 0 instructions: 98000003 cycles: 155430418 heartbeat IPC: 0.508653 cumulative IPC: 0.581024 (Simulation time: 0 hr 45 min 57 sec) 
select_counter is 1023
Heartbeat CPU 0 instructions: 99000000 cycles: 156951764 heartbeat IPC: 0.657311 cumulative IPC: 0.581783 (Simulation time: 0 hr 46 min 14 sec) 
select_counter is 1023
Heartbeat CPU 0 instructions: 100000000 cycles: 158096612 heartbeat IPC: 0.873478 cumulative IPC: 0.58395 (Simulation time: 0 hr 46 min 32 sec) 
select_counter is 1020
Heartbeat CPU 0 instructions: 101000002 cycles: 159551023 heartbeat IPC: 0.687565 cumulative IPC: 0.584918 (Simulation time: 0 hr 46 min 48 sec) 
select_counter is 1023
Heartbeat CPU 0 instructions: 102000003 cycles: 161822395 heartbeat IPC: 0.440263 cumulative IPC: 0.582837 (Simulation time: 0 hr 47 min 6 sec) 
select_counter is 1023
Heartbeat CPU 0 instructions: 103000000 cycles: 163115064 heartbeat IPC: 0.773591 cumulative IPC: 0.584386 (Simulation time: 0 hr 47 min 20 sec) 
select_counter is 1023
Heartbeat CPU 0 instructions: 104000000 cycles: 164343379 heartbeat IPC: 0.814123 cumulative IPC: 0.586146 (Simulation time: 0 hr 47 min 34 sec) 
select_counter is 1007
Heartbeat CPU 0 instructions: 105000002 cycles: 166174850 heartbeat IPC: 0.54601 cumulative IPC: 0.585693 (Simulation time: 0 hr 47 min 46 sec) 
select_counter is 1023
Heartbeat CPU 0 instructions: 106000000 cycles: 168423765 heartbeat IPC: 0.444658 cumulative IPC: 0.583764 (Simulation time: 0 hr 47 min 58 sec) 
select_counter is 1022
Heartbeat CPU 0 instructions: 107000001 cycles: 169612713 heartbeat IPC: 0.841081 cumulative IPC: 0.585611 (Simulation time: 0 hr 48 min 9 sec) 
select_counter is 1023
Heartbeat CPU 0 instructions: 108000000 cycles: 170868754 heartbeat IPC: 0.796152 cumulative IPC: 0.587195 (Simulation time: 0 hr 48 min 21 sec) 
select_counter is 1012
Heartbeat CPU 0 instructions: 109000001 cycles: 172792711 heartbeat IPC: 0.519763 cumulative IPC: 0.586427 (Simulation time: 0 hr 48 min 32 sec) 
select_counter is 1021
Heartbeat CPU 0 instructions: 110000000 cycles: 174884415 heartbeat IPC: 0.478079 cumulative IPC: 0.585101 (Simulation time: 0 hr 48 min 43 sec) 
select_counter is 1023
Finished CPU 0 instructions: 100000000 cycles: 170910681 cummulative IPC: 0.585101 (Simulation time: 0 hr 48 min 43 sec) 

ChampSim completed all CPUs

Region of Interest Statistics

CPU 0 cummulative IPC: 0.585101 instructions: 100000000 cycles: 170910681
LLC TOTAL     ACCESS:    1575093  HIT:     730595  MISS:     844498
LLC LOAD      ACCESS:    1332829  HIT:     545496  MISS:     787333
LLC RFO       ACCESS:     103774  HIT:      67354  MISS:      36420
LLC PREFETCH  ACCESS:          0  HIT:          0  MISS:          0
LLC WRITEBACK ACCESS:     138490  HIT:     117745  MISS:      20745
Ship samples: 
12, 43, 76, 111, 136, 170, 204, 233, 259, 295, 350, 353, 390, 418, 457, 501, 542, 544, 603, 609, 662, 677, 711, 755, 776, 800, 832, 879, 905, 941, 974, 1000, 1027, 1078, 1112, 1121, 1154, 1200, 1237, 1267, 1309, 1317, 1364, 1381, 1413, 1456, 1492, 1504, 1536, 1592, 1624, 1648, 1687, 1716, 1741, 1784, 1815, 1845, 1883, 1904, 1923, 1953, 1988, 2043, 
Lime duel samples: 
15, 122, 194, 314, 392, 509, 586, 683, 778, 865, 978, 1064, 1166, 1251, 1374, 1458, 1560, 1638, 1754, 1846, 1933, 
Lime samples: 
15, 122, 194, 314, 392, 509, 586, 683, 778, 865, 978, 1064, 1166, 1251, 1374, 1458, 1560, 1638, 1754, 1846, 1933, 
Insertion Distribution: 
	LOAD 294 0 0 0 0 0 3039 21141 
	RFO 16 0 0 0 0 0 204 705 
	PREF 0 0 0 0 0 0 0 0 
	WRITEBACK 0 0 0 0 0 0 0 743 
Total Prefetch Downgrades: 0
