
*** ChampSim Multicore Out-of-Order Simulator ***

Warmup Instructions: 10000000
Simulation Instructions: 100000000
Configuration: 1
Number of CPUs: 1
LLC sets: 2048
LLC ways: 16
Off-chip DRAM Channels: 1 Width: 64-bit Data Rate: 1600 MT/s

CPU 0 runs /datasets/cs240c-wi22-a00-public/data/Assignment2-gz/astar_313B.trace.gz
Heartbeat CPU 0 instructions: 1000001 cycles: 678650 heartbeat IPC: 1.47352 cumulative IPC: 1.47352 (Simulation time: 0 hr 0 min 30 sec) 
select_counter is 1023
Heartbeat CPU 0 instructions: 2000003 cycles: 1269574 heartbeat IPC: 1.69227 cumulative IPC: 1.57533 (Simulation time: 0 hr 1 min 0 sec) 
select_counter is 1023
Heartbeat CPU 0 instructions: 3000003 cycles: 1946973 heartbeat IPC: 1.47623 cumulative IPC: 1.54085 (Simulation time: 0 hr 1 min 30 sec) 
select_counter is 1023
Heartbeat CPU 0 instructions: 4000000 cycles: 2624785 heartbeat IPC: 1.47533 cumulative IPC: 1.52393 (Simulation time: 0 hr 2 min 0 sec) 
select_counter is 1022
Heartbeat CPU 0 instructions: 5000002 cycles: 3302650 heartbeat IPC: 1.47522 cumulative IPC: 1.51394 (Simulation time: 0 hr 2 min 32 sec) 
select_counter is 1023
Heartbeat CPU 0 instructions: 6000001 cycles: 3892286 heartbeat IPC: 1.69596 cumulative IPC: 1.54151 (Simulation time: 0 hr 3 min 8 sec) 
select_counter is 1023
Heartbeat CPU 0 instructions: 7000001 cycles: 4464580 heartbeat IPC: 1.74735 cumulative IPC: 1.5679 (Simulation time: 0 hr 3 min 39 sec) 
select_counter is 1018
Heartbeat CPU 0 instructions: 8000000 cycles: 5019856 heartbeat IPC: 1.8009 cumulative IPC: 1.59367 (Simulation time: 0 hr 4 min 9 sec) 
select_counter is 1023
Heartbeat CPU 0 instructions: 9000001 cycles: 5584331 heartbeat IPC: 1.77156 cumulative IPC: 1.61165 (Simulation time: 0 hr 4 min 44 sec) 
select_counter is 1023
Heartbeat CPU 0 instructions: 10000002 cycles: 6261293 heartbeat IPC: 1.47719 cumulative IPC: 1.59711 (Simulation time: 0 hr 5 min 19 sec) 
select_counter is 1023

Warmup complete CPU 0 instructions: 10000002 cycles: 6261293 (Simulation time: 0 hr 5 min 19 sec) 

Heartbeat CPU 0 instructions: 11000000 cycles: 13552224 heartbeat IPC: 0.137156 cumulative IPC: 0.137156 (Simulation time: 0 hr 5 min 54 sec) 
select_counter is 1023
Heartbeat CPU 0 instructions: 12000000 cycles: 21356923 heartbeat IPC: 0.128128 cumulative IPC: 0.132489 (Simulation time: 0 hr 6 min 31 sec) 
select_counter is 1023
Heartbeat CPU 0 instructions: 13000003 cycles: 30730327 heartbeat IPC: 0.106685 cumulative IPC: 0.122604 (Simulation time: 0 hr 7 min 13 sec) 
select_counter is 1023
Heartbeat CPU 0 instructions: 14000002 cycles: 37502856 heartbeat IPC: 0.147655 cumulative IPC: 0.128035 (Simulation time: 0 hr 7 min 43 sec) 
select_counter is 1023
Heartbeat CPU 0 instructions: 15000000 cycles: 44572822 heartbeat IPC: 0.141443 cumulative IPC: 0.130509 (Simulation time: 0 hr 8 min 17 sec) 
select_counter is 1023
Heartbeat CPU 0 instructions: 16000000 cycles: 51487188 heartbeat IPC: 0.144626 cumulative IPC: 0.132667 (Simulation time: 0 hr 8 min 51 sec) 
select_counter is 1023
Heartbeat CPU 0 instructions: 17000001 cycles: 58333158 heartbeat IPC: 0.146071 cumulative IPC: 0.13443 (Simulation time: 0 hr 9 min 24 sec) 
select_counter is 1020
Heartbeat CPU 0 instructions: 18000000 cycles: 67922930 heartbeat IPC: 0.104278 cumulative IPC: 0.12974 (Simulation time: 0 hr 10 min 7 sec) 
select_counter is 1023
Heartbeat CPU 0 instructions: 19000000 cycles: 74422873 heartbeat IPC: 0.153848 cumulative IPC: 0.132039 (Simulation time: 0 hr 10 min 40 sec) 
select_counter is 1023
Heartbeat CPU 0 instructions: 20000000 cycles: 81291547 heartbeat IPC: 0.145589 cumulative IPC: 0.13328 (Simulation time: 0 hr 11 min 13 sec) 
select_counter is 1022
Heartbeat CPU 0 instructions: 21000003 cycles: 90418166 heartbeat IPC: 0.10957 cumulative IPC: 0.130708 (Simulation time: 0 hr 11 min 50 sec) 
select_counter is 1022
Heartbeat CPU 0 instructions: 22000002 cycles: 98213700 heartbeat IPC: 0.128278 cumulative IPC: 0.130502 (Simulation time: 0 hr 12 min 33 sec) 
select_counter is 1023
Heartbeat CPU 0 instructions: 23000002 cycles: 104784913 heartbeat IPC: 0.152179 cumulative IPC: 0.131948 (Simulation time: 0 hr 13 min 4 sec) 
select_counter is 1020
Heartbeat CPU 0 instructions: 24000000 cycles: 112224544 heartbeat IPC: 0.134415 cumulative IPC: 0.132121 (Simulation time: 0 hr 13 min 39 sec) 
select_counter is 1023
Heartbeat CPU 0 instructions: 25000001 cycles: 121013119 heartbeat IPC: 0.113784 cumulative IPC: 0.130717 (Simulation time: 0 hr 14 min 17 sec) 
select_counter is 1023
Heartbeat CPU 0 instructions: 26000002 cycles: 128041089 heartbeat IPC: 0.142289 cumulative IPC: 0.131385 (Simulation time: 0 hr 14 min 49 sec) 
select_counter is 1023
Heartbeat CPU 0 instructions: 27000003 cycles: 138117105 heartbeat IPC: 0.0992457 cumulative IPC: 0.128929 (Simulation time: 0 hr 15 min 29 sec) 
select_counter is 1021
Heartbeat CPU 0 instructions: 28000000 cycles: 144746738 heartbeat IPC: 0.150837 cumulative IPC: 0.129978 (Simulation time: 0 hr 15 min 59 sec) 
select_counter is 1023
Heartbeat CPU 0 instructions: 29000001 cycles: 154215541 heartbeat IPC: 0.10561 cumulative IPC: 0.128418 (Simulation time: 0 hr 16 min 39 sec) 
select_counter is 1023
Heartbeat CPU 0 instructions: 30000001 cycles: 160841692 heartbeat IPC: 0.150917 cumulative IPC: 0.129383 (Simulation time: 0 hr 17 min 11 sec) 
select_counter is 1023
Heartbeat CPU 0 instructions: 31000002 cycles: 167528211 heartbeat IPC: 0.149555 cumulative IPC: 0.130219 (Simulation time: 0 hr 17 min 43 sec) 
select_counter is 1023
Heartbeat CPU 0 instructions: 32000000 cycles: 174077362 heartbeat IPC: 0.152691 cumulative IPC: 0.131096 (Simulation time: 0 hr 18 min 13 sec) 
select_counter is 1023
Heartbeat CPU 0 instructions: 33000000 cycles: 180729509 heartbeat IPC: 0.150327 cumulative IPC: 0.131829 (Simulation time: 0 hr 18 min 42 sec) 
select_counter is 1023
Heartbeat CPU 0 instructions: 34000000 cycles: 190383424 heartbeat IPC: 0.103585 cumulative IPC: 0.130348 (Simulation time: 0 hr 19 min 17 sec) 
select_counter is 1023
Heartbeat CPU 0 instructions: 35000000 cycles: 197321989 heartbeat IPC: 0.144122 cumulative IPC: 0.130848 (Simulation time: 0 hr 19 min 45 sec) 
select_counter is 1023
Heartbeat CPU 0 instructions: 36000000 cycles: 204313965 heartbeat IPC: 0.143021 cumulative IPC: 0.131278 (Simulation time: 0 hr 20 min 17 sec) 
select_counter is 1021
Heartbeat CPU 0 instructions: 37000002 cycles: 214015262 heartbeat IPC: 0.103079 cumulative IPC: 0.129961 (Simulation time: 0 hr 20 min 49 sec) 
select_counter is 1021
Heartbeat CPU 0 instructions: 38000000 cycles: 221024451 heartbeat IPC: 0.14267 cumulative IPC: 0.130376 (Simulation time: 0 hr 21 min 15 sec) 
select_counter is 1020
Heartbeat CPU 0 instructions: 39000001 cycles: 230762305 heartbeat IPC: 0.102692 cumulative IPC: 0.129175 (Simulation time: 0 hr 21 min 47 sec) 
select_counter is 1023
Heartbeat CPU 0 instructions: 40000000 cycles: 240354755 heartbeat IPC: 0.104249 cumulative IPC: 0.128154 (Simulation time: 0 hr 22 min 20 sec) 
select_counter is 1021
Heartbeat CPU 0 instructions: 41000001 cycles: 247110734 heartbeat IPC: 0.148017 cumulative IPC: 0.128711 (Simulation time: 0 hr 22 min 53 sec) 
select_counter is 1021
Heartbeat CPU 0 instructions: 42000003 cycles: 254578668 heartbeat IPC: 0.133906 cumulative IPC: 0.128867 (Simulation time: 0 hr 23 min 21 sec) 
select_counter is 1022
Heartbeat CPU 0 instructions: 43000000 cycles: 264669927 heartbeat IPC: 0.0990954 cumulative IPC: 0.127705 (Simulation time: 0 hr 23 min 54 sec) 
select_counter is 1022
Heartbeat CPU 0 instructions: 44000000 cycles: 271475521 heartbeat IPC: 0.146938 cumulative IPC: 0.128198 (Simulation time: 0 hr 24 min 21 sec) 
select_counter is 1023
Heartbeat CPU 0 instructions: 45000000 cycles: 278756318 heartbeat IPC: 0.137348 cumulative IPC: 0.128443 (Simulation time: 0 hr 24 min 49 sec) 
select_counter is 1021
Heartbeat CPU 0 instructions: 46000002 cycles: 286446067 heartbeat IPC: 0.130044 cumulative IPC: 0.128487 (Simulation time: 0 hr 25 min 17 sec) 
select_counter is 1022
Heartbeat CPU 0 instructions: 47000000 cycles: 294321545 heartbeat IPC: 0.126976 cumulative IPC: 0.128445 (Simulation time: 0 hr 25 min 46 sec) 
select_counter is 1019
Heartbeat CPU 0 instructions: 48000000 cycles: 303454696 heartbeat IPC: 0.109491 cumulative IPC: 0.127863 (Simulation time: 0 hr 26 min 20 sec) 
select_counter is 1023
Heartbeat CPU 0 instructions: 49000000 cycles: 309875110 heartbeat IPC: 0.155753 cumulative IPC: 0.128453 (Simulation time: 0 hr 26 min 49 sec) 
select_counter is 1023
Heartbeat CPU 0 instructions: 50000000 cycles: 316581453 heartbeat IPC: 0.149113 cumulative IPC: 0.128899 (Simulation time: 0 hr 27 min 19 sec) 
select_counter is 1022
Heartbeat CPU 0 instructions: 51000000 cycles: 324004229 heartbeat IPC: 0.13472 cumulative IPC: 0.129035 (Simulation time: 0 hr 27 min 49 sec) 
select_counter is 999
Heartbeat CPU 0 instructions: 52000000 cycles: 332727874 heartbeat IPC: 0.114631 cumulative IPC: 0.12865 (Simulation time: 0 hr 28 min 22 sec) 
select_counter is 1023
Heartbeat CPU 0 instructions: 53000000 cycles: 339757659 heartbeat IPC: 0.142252 cumulative IPC: 0.128937 (Simulation time: 0 hr 28 min 49 sec) 
select_counter is 1023
Heartbeat CPU 0 instructions: 54000001 cycles: 347737776 heartbeat IPC: 0.125312 cumulative IPC: 0.128852 (Simulation time: 0 hr 29 min 16 sec) 
select_counter is 1023
Heartbeat CPU 0 instructions: 55000001 cycles: 356143087 heartbeat IPC: 0.118972 cumulative IPC: 0.128615 (Simulation time: 0 hr 29 min 42 sec) 
select_counter is 1023
Heartbeat CPU 0 instructions: 56000000 cycles: 366507054 heartbeat IPC: 0.0964881 cumulative IPC: 0.127691 (Simulation time: 0 hr 30 min 17 sec) 
select_counter is 1023
Heartbeat CPU 0 instructions: 57000000 cycles: 373118881 heartbeat IPC: 0.151244 cumulative IPC: 0.128115 (Simulation time: 0 hr 30 min 42 sec) 
select_counter is 1023
Heartbeat CPU 0 instructions: 58000001 cycles: 379973842 heartbeat IPC: 0.14588 cumulative IPC: 0.128441 (Simulation time: 0 hr 31 min 11 sec) 
select_counter is 1022
Heartbeat CPU 0 instructions: 59000002 cycles: 388726852 heartbeat IPC: 0.114247 cumulative IPC: 0.128116 (Simulation time: 0 hr 31 min 41 sec) 
select_counter is 1023
Heartbeat CPU 0 instructions: 60000000 cycles: 396795525 heartbeat IPC: 0.123936 cumulative IPC: 0.12803 (Simulation time: 0 hr 32 min 18 sec) 
select_counter is 1023
Heartbeat CPU 0 instructions: 61000001 cycles: 403711554 heartbeat IPC: 0.144592 cumulative IPC: 0.128318 (Simulation time: 0 hr 32 min 45 sec) 
select_counter is 1023
Heartbeat CPU 0 instructions: 62000001 cycles: 410611053 heartbeat IPC: 0.144938 cumulative IPC: 0.128602 (Simulation time: 0 hr 33 min 13 sec) 
select_counter is 1023
Heartbeat CPU 0 instructions: 63000000 cycles: 417516895 heartbeat IPC: 0.144805 cumulative IPC: 0.128874 (Simulation time: 0 hr 33 min 41 sec) 
select_counter is 1016
Heartbeat CPU 0 instructions: 64000000 cycles: 426839612 heartbeat IPC: 0.107265 cumulative IPC: 0.128395 (Simulation time: 0 hr 34 min 12 sec) 
select_counter is 1023
Heartbeat CPU 0 instructions: 65000000 cycles: 434184423 heartbeat IPC: 0.136151 cumulative IPC: 0.128528 (Simulation time: 0 hr 34 min 41 sec) 
select_counter is 1022
Heartbeat CPU 0 instructions: 66000001 cycles: 441108037 heartbeat IPC: 0.144433 cumulative IPC: 0.128781 (Simulation time: 0 hr 35 min 8 sec) 
select_counter is 1023
Heartbeat CPU 0 instructions: 67000000 cycles: 448291167 heartbeat IPC: 0.139215 cumulative IPC: 0.128951 (Simulation time: 0 hr 35 min 36 sec) 
select_counter is 1023
Heartbeat CPU 0 instructions: 68000000 cycles: 455500585 heartbeat IPC: 0.138707 cumulative IPC: 0.129107 (Simulation time: 0 hr 36 min 5 sec) 
select_counter is 1023
Heartbeat CPU 0 instructions: 69000000 cycles: 468303986 heartbeat IPC: 0.0781043 cumulative IPC: 0.127694 (Simulation time: 0 hr 36 min 45 sec) 
select_counter is 1022
Heartbeat CPU 0 instructions: 70000000 cycles: 475228079 heartbeat IPC: 0.144423 cumulative IPC: 0.127941 (Simulation time: 0 hr 37 min 12 sec) 
select_counter is 1023
Heartbeat CPU 0 instructions: 71000002 cycles: 482293407 heartbeat IPC: 0.141537 cumulative IPC: 0.128143 (Simulation time: 0 hr 37 min 39 sec) 
select_counter is 1023
Heartbeat CPU 0 instructions: 72000000 cycles: 489564138 heartbeat IPC: 0.137537 cumulative IPC: 0.128284 (Simulation time: 0 hr 38 min 7 sec) 
select_counter is 1023
Heartbeat CPU 0 instructions: 73000003 cycles: 496859814 heartbeat IPC: 0.137068 cumulative IPC: 0.128415 (Simulation time: 0 hr 38 min 33 sec) 
select_counter is 1020
Heartbeat CPU 0 instructions: 74000000 cycles: 506016188 heartbeat IPC: 0.109213 cumulative IPC: 0.128063 (Simulation time: 0 hr 39 min 1 sec) 
select_counter is 1023
Heartbeat CPU 0 instructions: 75000000 cycles: 513682090 heartbeat IPC: 0.130448 cumulative IPC: 0.128099 (Simulation time: 0 hr 39 min 28 sec) 
select_counter is 1023
Heartbeat CPU 0 instructions: 76000000 cycles: 520249138 heartbeat IPC: 0.152275 cumulative IPC: 0.128408 (Simulation time: 0 hr 39 min 51 sec) 
select_counter is 1023
Heartbeat CPU 0 instructions: 77000000 cycles: 526887024 heartbeat IPC: 0.15065 cumulative IPC: 0.128691 (Simulation time: 0 hr 40 min 14 sec) 
select_counter is 1023
Heartbeat CPU 0 instructions: 78000001 cycles: 533466651 heartbeat IPC: 0.151984 cumulative IPC: 0.128982 (Simulation time: 0 hr 40 min 39 sec) 
select_counter is 1023
Heartbeat CPU 0 instructions: 79000000 cycles: 542832876 heartbeat IPC: 0.106766 cumulative IPC: 0.128594 (Simulation time: 0 hr 41 min 8 sec) 
select_counter is 1022
Heartbeat CPU 0 instructions: 80000000 cycles: 549587564 heartbeat IPC: 0.148045 cumulative IPC: 0.128836 (Simulation time: 0 hr 41 min 30 sec) 
select_counter is 1023
Heartbeat CPU 0 instructions: 81000003 cycles: 557730546 heartbeat IPC: 0.122806 cumulative IPC: 0.128747 (Simulation time: 0 hr 41 min 54 sec) 
select_counter is 1022
Heartbeat CPU 0 instructions: 82000001 cycles: 566162871 heartbeat IPC: 0.118591 cumulative IPC: 0.128594 (Simulation time: 0 hr 42 min 19 sec) 
select_counter is 1023
Heartbeat CPU 0 instructions: 83000002 cycles: 573044508 heartbeat IPC: 0.145314 cumulative IPC: 0.128797 (Simulation time: 0 hr 42 min 39 sec) 
select_counter is 1023
Heartbeat CPU 0 instructions: 84000000 cycles: 580125088 heartbeat IPC: 0.141231 cumulative IPC: 0.12895 (Simulation time: 0 hr 43 min 0 sec) 
select_counter is 1023
Heartbeat CPU 0 instructions: 85000000 cycles: 587674453 heartbeat IPC: 0.132461 cumulative IPC: 0.128996 (Simulation time: 0 hr 43 min 20 sec) 
select_counter is 1019
Heartbeat CPU 0 instructions: 86000001 cycles: 596869643 heartbeat IPC: 0.108753 cumulative IPC: 0.128681 (Simulation time: 0 hr 43 min 45 sec) 
select_counter is 1020
Heartbeat CPU 0 instructions: 87000000 cycles: 603359865 heartbeat IPC: 0.154078 cumulative IPC: 0.128957 (Simulation time: 0 hr 44 min 5 sec) 
select_counter is 1021
Heartbeat CPU 0 instructions: 88000000 cycles: 610098173 heartbeat IPC: 0.148405 cumulative IPC: 0.129174 (Simulation time: 0 hr 44 min 25 sec) 
select_counter is 1023
Heartbeat CPU 0 instructions: 89000002 cycles: 616868529 heartbeat IPC: 0.147703 cumulative IPC: 0.129379 (Simulation time: 0 hr 44 min 45 sec) 
select_counter is 1023
Heartbeat CPU 0 instructions: 90000002 cycles: 623607834 heartbeat IPC: 0.148383 cumulative IPC: 0.129587 (Simulation time: 0 hr 45 min 3 sec) 
select_counter is 1023
Heartbeat CPU 0 instructions: 91000001 cycles: 633144868 heartbeat IPC: 0.104854 cumulative IPC: 0.129211 (Simulation time: 0 hr 45 min 25 sec) 
select_counter is 1023
Heartbeat CPU 0 instructions: 92000000 cycles: 640156786 heartbeat IPC: 0.142614 cumulative IPC: 0.129359 (Simulation time: 0 hr 45 min 42 sec) 
select_counter is 1023
Heartbeat CPU 0 instructions: 93000003 cycles: 647595556 heartbeat IPC: 0.134431 cumulative IPC: 0.129418 (Simulation time: 0 hr 46 min 0 sec) 
select_counter is 1022
Heartbeat CPU 0 instructions: 94000000 cycles: 655286631 heartbeat IPC: 0.13002 cumulative IPC: 0.129425 (Simulation time: 0 hr 46 min 18 sec) 
select_counter is 1022
Heartbeat CPU 0 instructions: 95000000 cycles: 662010834 heartbeat IPC: 0.148717 cumulative IPC: 0.129623 (Simulation time: 0 hr 46 min 36 sec) 
select_counter is 1022
Heartbeat CPU 0 instructions: 96000000 cycles: 671577463 heartbeat IPC: 0.10453 cumulative IPC: 0.129262 (Simulation time: 0 hr 46 min 57 sec) 
select_counter is 1023
Heartbeat CPU 0 instructions: 97000000 cycles: 678564642 heartbeat IPC: 0.143119 cumulative IPC: 0.129406 (Simulation time: 0 hr 47 min 13 sec) 
select_counter is 1023
Heartbeat CPU 0 instructions: 98000003 cycles: 686285619 heartbeat IPC: 0.129518 cumulative IPC: 0.129407 (Simulation time: 0 hr 47 min 29 sec) 
select_counter is 1022
Heartbeat CPU 0 instructions: 99000001 cycles: 694213276 heartbeat IPC: 0.12614 cumulative IPC: 0.129369 (Simulation time: 0 hr 47 min 42 sec) 
select_counter is 1022
Heartbeat CPU 0 instructions: 100000000 cycles: 701820525 heartbeat IPC: 0.131453 cumulative IPC: 0.129392 (Simulation time: 0 hr 47 min 55 sec) 
select_counter is 1023
Heartbeat CPU 0 instructions: 101000000 cycles: 711604361 heartbeat IPC: 0.102209 cumulative IPC: 0.129015 (Simulation time: 0 hr 48 min 11 sec) 
select_counter is 1023
Heartbeat CPU 0 instructions: 102000001 cycles: 718243246 heartbeat IPC: 0.150628 cumulative IPC: 0.129217 (Simulation time: 0 hr 48 min 23 sec) 
select_counter is 1023
Heartbeat CPU 0 instructions: 103000001 cycles: 724905554 heartbeat IPC: 0.150098 cumulative IPC: 0.12941 (Simulation time: 0 hr 48 min 35 sec) 
select_counter is 1022
Heartbeat CPU 0 instructions: 104000000 cycles: 731454836 heartbeat IPC: 0.152688 cumulative IPC: 0.129621 (Simulation time: 0 hr 48 min 47 sec) 
select_counter is 1023
Heartbeat CPU 0 instructions: 105000000 cycles: 737701177 heartbeat IPC: 0.160094 cumulative IPC: 0.129881 (Simulation time: 0 hr 48 min 59 sec) 
select_counter is 1023
Heartbeat CPU 0 instructions: 106000000 cycles: 747289238 heartbeat IPC: 0.104296 cumulative IPC: 0.12955 (Simulation time: 0 hr 49 min 13 sec) 
select_counter is 1023
Heartbeat CPU 0 instructions: 107000002 cycles: 754273016 heartbeat IPC: 0.143189 cumulative IPC: 0.129677 (Simulation time: 0 hr 49 min 25 sec) 
select_counter is 1022
Heartbeat CPU 0 instructions: 108000000 cycles: 763895285 heartbeat IPC: 0.103925 cumulative IPC: 0.12935 (Simulation time: 0 hr 49 min 39 sec) 
select_counter is 1023
Heartbeat CPU 0 instructions: 109000003 cycles: 770895653 heartbeat IPC: 0.14285 cumulative IPC: 0.129474 (Simulation time: 0 hr 49 min 53 sec) 
select_counter is 1023
Heartbeat CPU 0 instructions: 110000003 cycles: 777684631 heartbeat IPC: 0.147298 cumulative IPC: 0.129631 (Simulation time: 0 hr 50 min 4 sec) 
select_counter is 1023
Finished CPU 0 instructions: 100000001 cycles: 771423338 cummulative IPC: 0.129631 (Simulation time: 0 hr 50 min 4 sec) 

ChampSim completed all CPUs

Region of Interest Statistics

CPU 0 cummulative IPC: 0.129631 instructions: 100000001 cycles: 771423338
LLC TOTAL     ACCESS:    6966701  HIT:    2582171  MISS:    4384530
LLC LOAD      ACCESS:    2413966  HIT:     537766  MISS:    1876200
LLC RFO       ACCESS:    1812772  HIT:     701114  MISS:    1111658
LLC PREFETCH  ACCESS:          0  HIT:          0  MISS:          0
LLC WRITEBACK ACCESS:    2739963  HIT:    1343291  MISS:    1396672
Ship samples: 
17, 62, 72, 119, 153, 184, 213, 226, 269, 308, 322, 379, 413, 439, 479, 493, 538, 551, 585, 614, 669, 688, 728, 761, 790, 822, 855, 880, 910, 957, 982, 1021, 1046, 1076, 1092, 1121, 1177, 1204, 1220, 1272, 1308, 1332, 1375, 1383, 1419, 1467, 1486, 1523, 1566, 1571, 1601, 1635, 1687, 1709, 1734, 1782, 1811, 1845, 1870, 1888, 1920, 1966, 1999, 2038, 
Lime duel samples: 
4, 125, 206, 292, 407, 495, 579, 703, 774, 881, 973, 1061, 1153, 1262, 1363, 1444, 1540, 1637, 1755, 1834, 1946, 
Lime samples: 
4, 125, 206, 292, 407, 495, 579, 703, 774, 881, 973, 1061, 1153, 1262, 1363, 1444, 1540, 1637, 1755, 1834, 1946, 
Insertion Distribution: 
	LOAD 2545 0 0 0 0 0 2308 60041 
	RFO 1566 0 0 0 0 0 2374 37063 
	PREF 0 0 0 0 0 0 0 0 
	WRITEBACK 0 0 0 0 0 0 0 45642 
Total Prefetch Downgrades: 0
