
*** ChampSim Multicore Out-of-Order Simulator ***

Warmup Instructions: 10000000
Simulation Instructions: 100000000
Configuration: 1
Number of CPUs: 1
LLC sets: 2048
LLC ways: 16
Off-chip DRAM Channels: 1 Width: 64-bit Data Rate: 1600 MT/s

CPU 0 runs /datasets/cs240c-wi22-a00-public/data/Assignment2-gz/soplex_217B.trace.gz
Heartbeat CPU 0 instructions: 1000000 cycles: 437365 heartbeat IPC: 2.28642 cumulative IPC: 2.28642 (Simulation time: 0 hr 0 min 26 sec) 
select_counter is 1023
Heartbeat CPU 0 instructions: 2000003 cycles: 797978 heartbeat IPC: 2.77306 cumulative IPC: 2.50634 (Simulation time: 0 hr 0 min 47 sec) 
select_counter is 1023
Heartbeat CPU 0 instructions: 3000000 cycles: 1248968 heartbeat IPC: 2.21734 cumulative IPC: 2.40198 (Simulation time: 0 hr 1 min 13 sec) 
select_counter is 1023
Heartbeat CPU 0 instructions: 4000000 cycles: 1686665 heartbeat IPC: 2.28469 cumulative IPC: 2.37154 (Simulation time: 0 hr 1 min 39 sec) 
select_counter is 1023
Heartbeat CPU 0 instructions: 5000001 cycles: 2071737 heartbeat IPC: 2.59692 cumulative IPC: 2.41343 (Simulation time: 0 hr 2 min 0 sec) 
select_counter is 1023
Heartbeat CPU 0 instructions: 6000000 cycles: 2446652 heartbeat IPC: 2.66727 cumulative IPC: 2.45233 (Simulation time: 0 hr 2 min 22 sec) 
select_counter is 1023
Heartbeat CPU 0 instructions: 7000003 cycles: 2921972 heartbeat IPC: 2.10385 cumulative IPC: 2.39564 (Simulation time: 0 hr 2 min 45 sec) 
select_counter is 1021
Heartbeat CPU 0 instructions: 8000000 cycles: 3365673 heartbeat IPC: 2.25376 cumulative IPC: 2.37694 (Simulation time: 0 hr 3 min 12 sec) 
select_counter is 1022
Heartbeat CPU 0 instructions: 9000001 cycles: 3792574 heartbeat IPC: 2.34247 cumulative IPC: 2.37306 (Simulation time: 0 hr 3 min 37 sec) 
select_counter is 1022
Heartbeat CPU 0 instructions: 10000000 cycles: 4204285 heartbeat IPC: 2.42889 cumulative IPC: 2.37853 (Simulation time: 0 hr 4 min 2 sec) 
select_counter is 1009

Warmup complete CPU 0 instructions: 10000004 cycles: 4204286 (Simulation time: 0 hr 4 min 2 sec) 

Heartbeat CPU 0 instructions: 11000002 cycles: 9060623 heartbeat IPC: 0.205917 cumulative IPC: 0.205916 (Simulation time: 0 hr 4 min 43 sec) 
select_counter is 1023
Heartbeat CPU 0 instructions: 12000000 cycles: 12305064 heartbeat IPC: 0.308219 cumulative IPC: 0.246889 (Simulation time: 0 hr 5 min 14 sec) 
select_counter is 1023
Heartbeat CPU 0 instructions: 13000000 cycles: 13897838 heartbeat IPC: 0.627835 cumulative IPC: 0.309484 (Simulation time: 0 hr 5 min 34 sec) 
select_counter is 1023
Heartbeat CPU 0 instructions: 14000000 cycles: 17822885 heartbeat IPC: 0.254774 cumulative IPC: 0.293716 (Simulation time: 0 hr 6 min 6 sec) 
select_counter is 1023
Heartbeat CPU 0 instructions: 15000000 cycles: 21458448 heartbeat IPC: 0.275061 cumulative IPC: 0.289785 (Simulation time: 0 hr 6 min 40 sec) 
select_counter is 1020
Heartbeat CPU 0 instructions: 16000000 cycles: 26065421 heartbeat IPC: 0.217062 cumulative IPC: 0.274459 (Simulation time: 0 hr 7 min 23 sec) 
select_counter is 1021
Heartbeat CPU 0 instructions: 17000002 cycles: 29255631 heartbeat IPC: 0.31346 cumulative IPC: 0.279426 (Simulation time: 0 hr 7 min 53 sec) 
select_counter is 1022
Heartbeat CPU 0 instructions: 18000002 cycles: 32564871 heartbeat IPC: 0.302184 cumulative IPC: 0.282082 (Simulation time: 0 hr 8 min 31 sec) 
select_counter is 1023
Heartbeat CPU 0 instructions: 19000000 cycles: 37028693 heartbeat IPC: 0.224023 cumulative IPC: 0.274186 (Simulation time: 0 hr 9 min 7 sec) 
select_counter is 1023
Heartbeat CPU 0 instructions: 20000000 cycles: 38680090 heartbeat IPC: 0.605548 cumulative IPC: 0.290058 (Simulation time: 0 hr 9 min 29 sec) 
select_counter is 1023
Heartbeat CPU 0 instructions: 21000000 cycles: 40480470 heartbeat IPC: 0.555438 cumulative IPC: 0.303229 (Simulation time: 0 hr 9 min 55 sec) 
select_counter is 1023
Heartbeat CPU 0 instructions: 22000001 cycles: 45360982 heartbeat IPC: 0.204897 cumulative IPC: 0.291569 (Simulation time: 0 hr 10 min 30 sec) 
select_counter is 1023
Heartbeat CPU 0 instructions: 23000003 cycles: 49769527 heartbeat IPC: 0.226833 cumulative IPC: 0.285305 (Simulation time: 0 hr 11 min 10 sec) 
select_counter is 1023
Heartbeat CPU 0 instructions: 24000000 cycles: 54071975 heartbeat IPC: 0.232425 cumulative IPC: 0.280743 (Simulation time: 0 hr 11 min 45 sec) 
select_counter is 1022
Heartbeat CPU 0 instructions: 25000001 cycles: 55979358 heartbeat IPC: 0.524279 cumulative IPC: 0.289715 (Simulation time: 0 hr 12 min 14 sec) 
select_counter is 1022
Heartbeat CPU 0 instructions: 26000003 cycles: 61319461 heartbeat IPC: 0.187263 cumulative IPC: 0.280136 (Simulation time: 0 hr 12 min 56 sec) 
select_counter is 1022
Heartbeat CPU 0 instructions: 27000002 cycles: 64348960 heartbeat IPC: 0.330087 cumulative IPC: 0.282652 (Simulation time: 0 hr 13 min 22 sec) 
select_counter is 1023
Heartbeat CPU 0 instructions: 28000000 cycles: 65918142 heartbeat IPC: 0.637273 cumulative IPC: 0.291669 (Simulation time: 0 hr 13 min 42 sec) 
select_counter is 1023
Heartbeat CPU 0 instructions: 29000002 cycles: 69896341 heartbeat IPC: 0.251371 cumulative IPC: 0.289228 (Simulation time: 0 hr 14 min 9 sec) 
select_counter is 1023
Heartbeat CPU 0 instructions: 30000002 cycles: 73727977 heartbeat IPC: 0.260985 cumulative IPC: 0.287672 (Simulation time: 0 hr 14 min 45 sec) 
select_counter is 1021
Heartbeat CPU 0 instructions: 31000000 cycles: 78019110 heartbeat IPC: 0.233038 cumulative IPC: 0.284496 (Simulation time: 0 hr 15 min 21 sec) 
select_counter is 1023
Heartbeat CPU 0 instructions: 32000000 cycles: 80425027 heartbeat IPC: 0.415642 cumulative IPC: 0.288635 (Simulation time: 0 hr 15 min 50 sec) 
select_counter is 1022
Heartbeat CPU 0 instructions: 33000003 cycles: 85218919 heartbeat IPC: 0.208599 cumulative IPC: 0.283899 (Simulation time: 0 hr 16 min 34 sec) 
select_counter is 1022
Heartbeat CPU 0 instructions: 34000000 cycles: 88778590 heartbeat IPC: 0.280924 cumulative IPC: 0.283774 (Simulation time: 0 hr 17 min 2 sec) 
select_counter is 1023
Heartbeat CPU 0 instructions: 35000002 cycles: 90388905 heartbeat IPC: 0.620998 cumulative IPC: 0.290075 (Simulation time: 0 hr 17 min 19 sec) 
select_counter is 1023
Heartbeat CPU 0 instructions: 36000000 cycles: 93442405 heartbeat IPC: 0.327492 cumulative IPC: 0.291355 (Simulation time: 0 hr 17 min 43 sec) 
select_counter is 1023
Heartbeat CPU 0 instructions: 37000002 cycles: 97074331 heartbeat IPC: 0.275337 cumulative IPC: 0.290729 (Simulation time: 0 hr 18 min 15 sec) 
select_counter is 1023
Heartbeat CPU 0 instructions: 38000000 cycles: 101571873 heartbeat IPC: 0.222343 cumulative IPC: 0.28757 (Simulation time: 0 hr 18 min 48 sec) 
select_counter is 1022
Heartbeat CPU 0 instructions: 39000001 cycles: 104572873 heartbeat IPC: 0.333223 cumulative IPC: 0.288935 (Simulation time: 0 hr 19 min 15 sec) 
select_counter is 1022
Heartbeat CPU 0 instructions: 40000000 cycles: 108775900 heartbeat IPC: 0.237924 cumulative IPC: 0.286885 (Simulation time: 0 hr 19 min 48 sec) 
select_counter is 1022
Heartbeat CPU 0 instructions: 41000000 cycles: 112825501 heartbeat IPC: 0.246938 cumulative IPC: 0.285395 (Simulation time: 0 hr 20 min 26 sec) 
select_counter is 1023
Heartbeat CPU 0 instructions: 42000002 cycles: 114478537 heartbeat IPC: 0.604949 cumulative IPC: 0.290186 (Simulation time: 0 hr 20 min 44 sec) 
select_counter is 1023
Heartbeat CPU 0 instructions: 43000001 cycles: 116900607 heartbeat IPC: 0.41287 cumulative IPC: 0.292822 (Simulation time: 0 hr 21 min 3 sec) 
select_counter is 1023
Heartbeat CPU 0 instructions: 44000000 cycles: 120858179 heartbeat IPC: 0.25268 cumulative IPC: 0.29146 (Simulation time: 0 hr 21 min 29 sec) 
select_counter is 1023
Heartbeat CPU 0 instructions: 45000003 cycles: 125572210 heartbeat IPC: 0.212133 cumulative IPC: 0.288379 (Simulation time: 0 hr 21 min 59 sec) 
select_counter is 1023
Heartbeat CPU 0 instructions: 46000000 cycles: 129212722 heartbeat IPC: 0.274686 cumulative IPC: 0.287981 (Simulation time: 0 hr 22 min 26 sec) 
select_counter is 1022
Heartbeat CPU 0 instructions: 47000001 cycles: 131383288 heartbeat IPC: 0.46071 cumulative IPC: 0.290929 (Simulation time: 0 hr 22 min 51 sec) 
select_counter is 1022
Heartbeat CPU 0 instructions: 48000000 cycles: 136255914 heartbeat IPC: 0.205228 cumulative IPC: 0.287766 (Simulation time: 0 hr 23 min 25 sec) 
select_counter is 1023
Heartbeat CPU 0 instructions: 49000000 cycles: 139544755 heartbeat IPC: 0.304058 cumulative IPC: 0.288162 (Simulation time: 0 hr 23 min 48 sec) 
select_counter is 1023
Heartbeat CPU 0 instructions: 50000001 cycles: 141154590 heartbeat IPC: 0.621182 cumulative IPC: 0.292077 (Simulation time: 0 hr 24 min 4 sec) 
select_counter is 1023
Heartbeat CPU 0 instructions: 51000000 cycles: 144623991 heartbeat IPC: 0.288234 cumulative IPC: 0.291982 (Simulation time: 0 hr 24 min 26 sec) 
select_counter is 1023
Heartbeat CPU 0 instructions: 52000000 cycles: 148241214 heartbeat IPC: 0.276455 cumulative IPC: 0.291592 (Simulation time: 0 hr 24 min 55 sec) 
select_counter is 1023
Heartbeat CPU 0 instructions: 53000000 cycles: 152564479 heartbeat IPC: 0.231307 cumulative IPC: 0.289835 (Simulation time: 0 hr 25 min 26 sec) 
select_counter is 1023
Heartbeat CPU 0 instructions: 54000000 cycles: 155232439 heartbeat IPC: 0.374818 cumulative IPC: 0.291336 (Simulation time: 0 hr 25 min 50 sec) 
select_counter is 1023
Heartbeat CPU 0 instructions: 55000000 cycles: 159716949 heartbeat IPC: 0.22299 cumulative IPC: 0.289365 (Simulation time: 0 hr 26 min 24 sec) 
select_counter is 1023
Heartbeat CPU 0 instructions: 56000000 cycles: 163442050 heartbeat IPC: 0.268449 cumulative IPC: 0.288876 (Simulation time: 0 hr 26 min 50 sec) 
select_counter is 1023
Heartbeat CPU 0 instructions: 57000003 cycles: 165054630 heartbeat IPC: 0.620126 cumulative IPC: 0.292197 (Simulation time: 0 hr 27 min 7 sec) 
select_counter is 1023
Heartbeat CPU 0 instructions: 58000000 cycles: 168018527 heartbeat IPC: 0.337393 cumulative IPC: 0.293015 (Simulation time: 0 hr 27 min 29 sec) 
select_counter is 1023
Heartbeat CPU 0 instructions: 59000003 cycles: 171633529 heartbeat IPC: 0.276626 cumulative IPC: 0.292661 (Simulation time: 0 hr 28 min 0 sec) 
select_counter is 1019
Heartbeat CPU 0 instructions: 60000000 cycles: 176016968 heartbeat IPC: 0.228131 cumulative IPC: 0.291015 (Simulation time: 0 hr 28 min 32 sec) 
select_counter is 1023
Heartbeat CPU 0 instructions: 61000000 cycles: 179275810 heartbeat IPC: 0.306857 cumulative IPC: 0.291309 (Simulation time: 0 hr 28 min 59 sec) 
select_counter is 1023
Heartbeat CPU 0 instructions: 62000001 cycles: 182933734 heartbeat IPC: 0.273379 cumulative IPC: 0.290943 (Simulation time: 0 hr 29 min 30 sec) 
select_counter is 1023
Heartbeat CPU 0 instructions: 63000001 cycles: 187428087 heartbeat IPC: 0.222501 cumulative IPC: 0.289264 (Simulation time: 0 hr 30 min 2 sec) 
select_counter is 1023
Heartbeat CPU 0 instructions: 64000000 cycles: 189090736 heartbeat IPC: 0.601449 cumulative IPC: 0.292071 (Simulation time: 0 hr 30 min 18 sec) 
select_counter is 1022
Heartbeat CPU 0 instructions: 65000001 cycles: 191039146 heartbeat IPC: 0.51324 cumulative IPC: 0.294378 (Simulation time: 0 hr 30 min 38 sec) 
select_counter is 1023
Heartbeat CPU 0 instructions: 66000002 cycles: 195387842 heartbeat IPC: 0.229954 cumulative IPC: 0.292912 (Simulation time: 0 hr 31 min 9 sec) 
select_counter is 1022
Heartbeat CPU 0 instructions: 67000000 cycles: 199665814 heartbeat IPC: 0.233755 cumulative IPC: 0.291617 (Simulation time: 0 hr 31 min 41 sec) 
select_counter is 1022
Heartbeat CPU 0 instructions: 68000000 cycles: 206237208 heartbeat IPC: 0.152175 cumulative IPC: 0.287082 (Simulation time: 0 hr 32 min 13 sec) 
select_counter is 1022
Heartbeat CPU 0 instructions: 69000001 cycles: 211220943 heartbeat IPC: 0.200653 cumulative IPC: 0.285001 (Simulation time: 0 hr 32 min 42 sec) 
select_counter is 1022
Heartbeat CPU 0 instructions: 70000002 cycles: 216036299 heartbeat IPC: 0.207669 cumulative IPC: 0.283243 (Simulation time: 0 hr 33 min 14 sec) 
select_counter is 1023
Heartbeat CPU 0 instructions: 71000000 cycles: 221320285 heartbeat IPC: 0.189251 cumulative IPC: 0.280956 (Simulation time: 0 hr 33 min 44 sec) 
select_counter is 1023
Heartbeat CPU 0 instructions: 72000000 cycles: 225991217 heartbeat IPC: 0.21409 cumulative IPC: 0.279548 (Simulation time: 0 hr 34 min 14 sec) 
select_counter is 1023
Heartbeat CPU 0 instructions: 73000000 cycles: 230567398 heartbeat IPC: 0.218523 cumulative IPC: 0.278314 (Simulation time: 0 hr 34 min 44 sec) 
select_counter is 1023
Heartbeat CPU 0 instructions: 74000000 cycles: 235224566 heartbeat IPC: 0.214723 cumulative IPC: 0.277032 (Simulation time: 0 hr 35 min 10 sec) 
select_counter is 1022
Heartbeat CPU 0 instructions: 75000002 cycles: 239316208 heartbeat IPC: 0.244401 cumulative IPC: 0.276464 (Simulation time: 0 hr 35 min 38 sec) 
select_counter is 1023
Heartbeat CPU 0 instructions: 76000000 cycles: 242484413 heartbeat IPC: 0.315636 cumulative IPC: 0.276985 (Simulation time: 0 hr 36 min 3 sec) 
select_counter is 1023
Heartbeat CPU 0 instructions: 77000000 cycles: 246629083 heartbeat IPC: 0.241274 cumulative IPC: 0.276374 (Simulation time: 0 hr 36 min 31 sec) 
select_counter is 1023
Heartbeat CPU 0 instructions: 78000002 cycles: 249009599 heartbeat IPC: 0.420078 cumulative IPC: 0.277772 (Simulation time: 0 hr 36 min 53 sec) 
select_counter is 1023
Heartbeat CPU 0 instructions: 79000001 cycles: 251264988 heartbeat IPC: 0.443382 cumulative IPC: 0.279284 (Simulation time: 0 hr 37 min 19 sec) 
select_counter is 1023
Heartbeat CPU 0 instructions: 80000000 cycles: 253405335 heartbeat IPC: 0.467213 cumulative IPC: 0.280898 (Simulation time: 0 hr 37 min 38 sec) 
select_counter is 1023
Heartbeat CPU 0 instructions: 81000003 cycles: 256734338 heartbeat IPC: 0.300391 cumulative IPC: 0.281155 (Simulation time: 0 hr 38 min 4 sec) 
select_counter is 1023
Heartbeat CPU 0 instructions: 82000001 cycles: 260439285 heartbeat IPC: 0.269909 cumulative IPC: 0.280992 (Simulation time: 0 hr 38 min 32 sec) 
select_counter is 1023
Heartbeat CPU 0 instructions: 83000002 cycles: 263764028 heartbeat IPC: 0.300775 cumulative IPC: 0.281245 (Simulation time: 0 hr 38 min 57 sec) 
select_counter is 1022
Heartbeat CPU 0 instructions: 84000000 cycles: 267449376 heartbeat IPC: 0.271344 cumulative IPC: 0.281107 (Simulation time: 0 hr 39 min 23 sec) 
select_counter is 1023
Heartbeat CPU 0 instructions: 85000000 cycles: 269352085 heartbeat IPC: 0.525566 cumulative IPC: 0.282861 (Simulation time: 0 hr 39 min 43 sec) 
select_counter is 1022
Heartbeat CPU 0 instructions: 86000000 cycles: 274406477 heartbeat IPC: 0.197848 cumulative IPC: 0.281271 (Simulation time: 0 hr 40 min 15 sec) 
select_counter is 1022
Heartbeat CPU 0 instructions: 87000000 cycles: 277906650 heartbeat IPC: 0.2857 cumulative IPC: 0.281327 (Simulation time: 0 hr 40 min 36 sec) 
select_counter is 1023
Heartbeat CPU 0 instructions: 88000000 cycles: 279640746 heartbeat IPC: 0.576669 cumulative IPC: 0.283187 (Simulation time: 0 hr 40 min 50 sec) 
select_counter is 1023
Heartbeat CPU 0 instructions: 89000003 cycles: 283223999 heartbeat IPC: 0.279077 cumulative IPC: 0.283134 (Simulation time: 0 hr 41 min 9 sec) 
select_counter is 1022
Heartbeat CPU 0 instructions: 90000002 cycles: 286909585 heartbeat IPC: 0.271327 cumulative IPC: 0.28298 (Simulation time: 0 hr 41 min 32 sec) 
select_counter is 1022
Heartbeat CPU 0 instructions: 91000001 cycles: 291313740 heartbeat IPC: 0.227058 cumulative IPC: 0.282122 (Simulation time: 0 hr 41 min 57 sec) 
select_counter is 1023
Heartbeat CPU 0 instructions: 92000000 cycles: 293904875 heartbeat IPC: 0.385931 cumulative IPC: 0.283051 (Simulation time: 0 hr 42 min 16 sec) 
select_counter is 1023
Heartbeat CPU 0 instructions: 93000002 cycles: 298502659 heartbeat IPC: 0.217497 cumulative IPC: 0.282027 (Simulation time: 0 hr 42 min 43 sec) 
select_counter is 1023
Heartbeat CPU 0 instructions: 94000001 cycles: 302169057 heartbeat IPC: 0.272747 cumulative IPC: 0.281913 (Simulation time: 0 hr 43 min 2 sec) 
select_counter is 1022
Heartbeat CPU 0 instructions: 95000003 cycles: 303781606 heartbeat IPC: 0.620137 cumulative IPC: 0.283733 (Simulation time: 0 hr 43 min 15 sec) 
select_counter is 1022
Heartbeat CPU 0 instructions: 96000000 cycles: 306818306 heartbeat IPC: 0.329304 cumulative IPC: 0.28419 (Simulation time: 0 hr 43 min 31 sec) 
select_counter is 1022
Heartbeat CPU 0 instructions: 97000002 cycles: 310264009 heartbeat IPC: 0.290217 cumulative IPC: 0.284258 (Simulation time: 0 hr 43 min 51 sec) 
select_counter is 1022
Heartbeat CPU 0 instructions: 98000003 cycles: 315445794 heartbeat IPC: 0.192984 cumulative IPC: 0.282739 (Simulation time: 0 hr 44 min 17 sec) 
select_counter is 1023
Heartbeat CPU 0 instructions: 99000000 cycles: 319252916 heartbeat IPC: 0.262665 cumulative IPC: 0.282496 (Simulation time: 0 hr 44 min 37 sec) 
select_counter is 1023
Heartbeat CPU 0 instructions: 100000000 cycles: 321779526 heartbeat IPC: 0.395787 cumulative IPC: 0.283397 (Simulation time: 0 hr 44 min 56 sec) 
select_counter is 1023
Heartbeat CPU 0 instructions: 101000000 cycles: 327157545 heartbeat IPC: 0.185942 cumulative IPC: 0.281775 (Simulation time: 0 hr 45 min 19 sec) 
select_counter is 1022
Heartbeat CPU 0 instructions: 102000000 cycles: 329193557 heartbeat IPC: 0.491156 cumulative IPC: 0.283086 (Simulation time: 0 hr 45 min 30 sec) 
select_counter is 1023
Heartbeat CPU 0 instructions: 103000001 cycles: 330738500 heartbeat IPC: 0.647274 cumulative IPC: 0.284809 (Simulation time: 0 hr 45 min 41 sec) 
select_counter is 1023
Heartbeat CPU 0 instructions: 104000000 cycles: 335198891 heartbeat IPC: 0.224195 cumulative IPC: 0.283993 (Simulation time: 0 hr 45 min 59 sec) 
select_counter is 1022
Heartbeat CPU 0 instructions: 105000003 cycles: 339227659 heartbeat IPC: 0.248216 cumulative IPC: 0.283562 (Simulation time: 0 hr 46 min 18 sec) 
select_counter is 1023
Heartbeat CPU 0 instructions: 106000002 cycles: 343101887 heartbeat IPC: 0.258116 cumulative IPC: 0.283271 (Simulation time: 0 hr 46 min 36 sec) 
select_counter is 1023
Heartbeat CPU 0 instructions: 107000001 cycles: 345339918 heartbeat IPC: 0.446821 cumulative IPC: 0.284344 (Simulation time: 0 hr 46 min 53 sec) 
select_counter is 1022
Heartbeat CPU 0 instructions: 108000000 cycles: 350798621 heartbeat IPC: 0.183194 cumulative IPC: 0.282751 (Simulation time: 0 hr 47 min 14 sec) 
select_counter is 1023
Heartbeat CPU 0 instructions: 109000000 cycles: 353228944 heartbeat IPC: 0.411468 cumulative IPC: 0.283648 (Simulation time: 0 hr 47 min 25 sec) 
select_counter is 1023
Heartbeat CPU 0 instructions: 110000002 cycles: 354775469 heartbeat IPC: 0.646612 cumulative IPC: 0.285249 (Simulation time: 0 hr 47 min 34 sec) 
select_counter is 1023
Finished CPU 0 instructions: 100000000 cycles: 350571187 cummulative IPC: 0.285249 (Simulation time: 0 hr 47 min 34 sec) 

ChampSim completed all CPUs

Region of Interest Statistics

CPU 0 cummulative IPC: 0.285249 instructions: 100000000 cycles: 350571187
LLC TOTAL     ACCESS:    6993503  HIT:    3664528  MISS:    3328975
LLC LOAD      ACCESS:    4167432  HIT:    1760336  MISS:    2407096
LLC RFO       ACCESS:     751795  HIT:     282424  MISS:     469371
LLC PREFETCH  ACCESS:          0  HIT:          0  MISS:          0
LLC WRITEBACK ACCESS:    2074276  HIT:    1621768  MISS:     452508
Ship samples: 
26, 57, 81, 97, 144, 160, 213, 241, 263, 293, 349, 355, 407, 434, 464, 488, 521, 549, 597, 615, 666, 684, 725, 754, 797, 813, 842, 875, 900, 943, 973, 1001, 1036, 1069, 1096, 1144, 1176, 1196, 1243, 1260, 1311, 1330, 1355, 1386, 1435, 1444, 1488, 1535, 1563, 1598, 1601, 1637, 1690, 1702, 1744, 1774, 1805, 1848, 1886, 1895, 1947, 1953, 2008, 2024, 
Lime duel samples: 
29, 109, 220, 298, 401, 496, 598, 675, 799, 881, 980, 1070, 1154, 1278, 1353, 1465, 1564, 1654, 1749, 1824, 1945, 
Lime samples: 
29, 109, 220, 298, 401, 496, 598, 675, 799, 881, 980, 1070, 1154, 1278, 1353, 1465, 1564, 1654, 1749, 1824, 1945, 
Insertion Distribution: 
	LOAD 14752 0 0 0 0 0 8821 59374 
	RFO 4696 0 0 0 0 0 2728 9145 
	PREF 0 0 0 0 0 0 0 0 
	WRITEBACK 0 0 0 0 0 0 0 15593 
Total Prefetch Downgrades: 0
