
*** ChampSim Multicore Out-of-Order Simulator ***

Warmup Instructions: 10000000
Simulation Instructions: 100000000
Configuration: 1
Number of CPUs: 1
LLC sets: 2048
LLC ways: 16
Off-chip DRAM Channels: 1 Width: 64-bit Data Rate: 1600 MT/s

CPU 0 runs /datasets/cs240c-wi22-a00-public/data/Assignment2-gz/cactusADM_1039B.trace.gz
Heartbeat CPU 0 instructions: 1000000 cycles: 595112 heartbeat IPC: 1.68036 cumulative IPC: 1.68036 (Simulation time: 0 hr 0 min 32 sec) 
select_counter is 633
Heartbeat CPU 0 instructions: 2000002 cycles: 1190036 heartbeat IPC: 1.68089 cumulative IPC: 1.68062 (Simulation time: 0 hr 1 min 5 sec) 
select_counter is 736
Heartbeat CPU 0 instructions: 3000003 cycles: 1785063 heartbeat IPC: 1.6806 cumulative IPC: 1.68061 (Simulation time: 0 hr 1 min 38 sec) 
select_counter is 858
Heartbeat CPU 0 instructions: 4000000 cycles: 2380257 heartbeat IPC: 1.68012 cumulative IPC: 1.68049 (Simulation time: 0 hr 2 min 11 sec) 
select_counter is 980
Heartbeat CPU 0 instructions: 5000001 cycles: 2975033 heartbeat IPC: 1.68131 cumulative IPC: 1.68065 (Simulation time: 0 hr 2 min 45 sec) 
select_counter is 1023
Heartbeat CPU 0 instructions: 6000002 cycles: 3569920 heartbeat IPC: 1.68099 cumulative IPC: 1.68071 (Simulation time: 0 hr 3 min 17 sec) 
select_counter is 1022
Heartbeat CPU 0 instructions: 7000000 cycles: 4164833 heartbeat IPC: 1.68091 cumulative IPC: 1.68074 (Simulation time: 0 hr 3 min 50 sec) 
select_counter is 1023
Heartbeat CPU 0 instructions: 8000000 cycles: 4759664 heartbeat IPC: 1.68115 cumulative IPC: 1.68079 (Simulation time: 0 hr 4 min 22 sec) 
select_counter is 1023
Heartbeat CPU 0 instructions: 9000002 cycles: 5354877 heartbeat IPC: 1.68007 cumulative IPC: 1.68071 (Simulation time: 0 hr 4 min 55 sec) 
select_counter is 1023
Heartbeat CPU 0 instructions: 10000003 cycles: 5968774 heartbeat IPC: 1.62894 cumulative IPC: 1.67539 (Simulation time: 0 hr 5 min 28 sec) 
select_counter is 1023

Warmup complete CPU 0 instructions: 10000003 cycles: 5968774 (Simulation time: 0 hr 5 min 28 sec) 

Heartbeat CPU 0 instructions: 11000003 cycles: 12547864 heartbeat IPC: 0.151997 cumulative IPC: 0.151997 (Simulation time: 0 hr 6 min 12 sec) 
select_counter is 1023
Heartbeat CPU 0 instructions: 12000000 cycles: 14680914 heartbeat IPC: 0.468811 cumulative IPC: 0.229564 (Simulation time: 0 hr 6 min 50 sec) 
select_counter is 1023
Heartbeat CPU 0 instructions: 13000002 cycles: 16741022 heartbeat IPC: 0.485412 cumulative IPC: 0.278493 (Simulation time: 0 hr 7 min 28 sec) 
select_counter is 1023
Heartbeat CPU 0 instructions: 14000001 cycles: 18813974 heartbeat IPC: 0.482403 cumulative IPC: 0.3114 (Simulation time: 0 hr 8 min 4 sec) 
select_counter is 1023
Heartbeat CPU 0 instructions: 15000002 cycles: 20953115 heartbeat IPC: 0.467478 cumulative IPC: 0.333682 (Simulation time: 0 hr 8 min 42 sec) 
select_counter is 1022
Heartbeat CPU 0 instructions: 16000000 cycles: 23077718 heartbeat IPC: 0.470675 cumulative IPC: 0.350694 (Simulation time: 0 hr 9 min 17 sec) 
select_counter is 1023
Heartbeat CPU 0 instructions: 17000003 cycles: 25161542 heartbeat IPC: 0.479888 cumulative IPC: 0.364721 (Simulation time: 0 hr 9 min 57 sec) 
select_counter is 1023
Heartbeat CPU 0 instructions: 18000002 cycles: 27214389 heartbeat IPC: 0.487128 cumulative IPC: 0.376548 (Simulation time: 0 hr 10 min 35 sec) 
select_counter is 1022
Heartbeat CPU 0 instructions: 19000003 cycles: 29325761 heartbeat IPC: 0.473626 cumulative IPC: 0.385324 (Simulation time: 0 hr 11 min 11 sec) 
select_counter is 1021
Heartbeat CPU 0 instructions: 20000000 cycles: 31461405 heartbeat IPC: 0.468241 cumulative IPC: 0.39227 (Simulation time: 0 hr 11 min 50 sec) 
select_counter is 1023
Heartbeat CPU 0 instructions: 21000002 cycles: 33590463 heartbeat IPC: 0.469692 cumulative IPC: 0.398238 (Simulation time: 0 hr 12 min 29 sec) 
select_counter is 1022
Heartbeat CPU 0 instructions: 22000003 cycles: 35651056 heartbeat IPC: 0.485298 cumulative IPC: 0.404282 (Simulation time: 0 hr 13 min 7 sec) 
select_counter is 1022
Heartbeat CPU 0 instructions: 23000001 cycles: 37706832 heartbeat IPC: 0.486433 cumulative IPC: 0.409603 (Simulation time: 0 hr 13 min 45 sec) 
select_counter is 1022
Heartbeat CPU 0 instructions: 24000000 cycles: 44814001 heartbeat IPC: 0.140703 cumulative IPC: 0.360405 (Simulation time: 0 hr 14 min 33 sec) 
select_counter is 1023
Heartbeat CPU 0 instructions: 25000002 cycles: 46926214 heartbeat IPC: 0.473438 cumulative IPC: 0.366234 (Simulation time: 0 hr 15 min 11 sec) 
select_counter is 1022
Heartbeat CPU 0 instructions: 26000002 cycles: 49003628 heartbeat IPC: 0.481368 cumulative IPC: 0.371792 (Simulation time: 0 hr 15 min 48 sec) 
select_counter is 1023
Heartbeat CPU 0 instructions: 27000001 cycles: 51023877 heartbeat IPC: 0.494988 cumulative IPC: 0.377316 (Simulation time: 0 hr 16 min 29 sec) 
select_counter is 1022
Heartbeat CPU 0 instructions: 28000000 cycles: 53114458 heartbeat IPC: 0.478335 cumulative IPC: 0.381795 (Simulation time: 0 hr 17 min 9 sec) 
select_counter is 1023
Heartbeat CPU 0 instructions: 29000000 cycles: 55209203 heartbeat IPC: 0.477385 cumulative IPC: 0.385862 (Simulation time: 0 hr 17 min 49 sec) 
select_counter is 1023
Heartbeat CPU 0 instructions: 30000003 cycles: 57306054 heartbeat IPC: 0.476907 cumulative IPC: 0.38958 (Simulation time: 0 hr 18 min 27 sec) 
select_counter is 1022
Heartbeat CPU 0 instructions: 31000001 cycles: 59351505 heartbeat IPC: 0.488889 cumulative IPC: 0.393386 (Simulation time: 0 hr 19 min 3 sec) 
select_counter is 1022
Heartbeat CPU 0 instructions: 32000000 cycles: 61374987 heartbeat IPC: 0.494197 cumulative IPC: 0.397067 (Simulation time: 0 hr 19 min 41 sec) 
select_counter is 1023
Heartbeat CPU 0 instructions: 33000001 cycles: 63487183 heartbeat IPC: 0.473441 cumulative IPC: 0.399872 (Simulation time: 0 hr 20 min 14 sec) 
select_counter is 1022
Heartbeat CPU 0 instructions: 34000000 cycles: 65571038 heartbeat IPC: 0.479879 cumulative IPC: 0.402669 (Simulation time: 0 hr 20 min 45 sec) 
select_counter is 1020
Heartbeat CPU 0 instructions: 35000001 cycles: 67636879 heartbeat IPC: 0.484065 cumulative IPC: 0.405396 (Simulation time: 0 hr 21 min 14 sec) 
select_counter is 1023
Heartbeat CPU 0 instructions: 36000000 cycles: 69657963 heartbeat IPC: 0.494783 cumulative IPC: 0.408233 (Simulation time: 0 hr 21 min 47 sec) 
select_counter is 1023
Heartbeat CPU 0 instructions: 37000002 cycles: 76681724 heartbeat IPC: 0.142374 cumulative IPC: 0.381825 (Simulation time: 0 hr 22 min 21 sec) 
select_counter is 1023
Heartbeat CPU 0 instructions: 38000001 cycles: 78738860 heartbeat IPC: 0.486112 cumulative IPC: 0.384773 (Simulation time: 0 hr 22 min 54 sec) 
select_counter is 1022
Heartbeat CPU 0 instructions: 39000002 cycles: 80811958 heartbeat IPC: 0.48237 cumulative IPC: 0.387477 (Simulation time: 0 hr 23 min 28 sec) 
select_counter is 1023
Heartbeat CPU 0 instructions: 40000000 cycles: 82800622 heartbeat IPC: 0.502849 cumulative IPC: 0.390463 (Simulation time: 0 hr 24 min 0 sec) 
select_counter is 1023
Heartbeat CPU 0 instructions: 41000003 cycles: 84756962 heartbeat IPC: 0.51116 cumulative IPC: 0.39346 (Simulation time: 0 hr 24 min 37 sec) 
select_counter is 1023
Heartbeat CPU 0 instructions: 42000000 cycles: 86721968 heartbeat IPC: 0.508903 cumulative IPC: 0.396269 (Simulation time: 0 hr 25 min 12 sec) 
select_counter is 1023
Heartbeat CPU 0 instructions: 43000000 cycles: 88711451 heartbeat IPC: 0.502643 cumulative IPC: 0.398827 (Simulation time: 0 hr 25 min 43 sec) 
select_counter is 1023
Heartbeat CPU 0 instructions: 44000000 cycles: 90695906 heartbeat IPC: 0.503917 cumulative IPC: 0.401288 (Simulation time: 0 hr 26 min 18 sec) 
select_counter is 1023
Heartbeat CPU 0 instructions: 45000000 cycles: 92624340 heartbeat IPC: 0.518555 cumulative IPC: 0.403898 (Simulation time: 0 hr 26 min 52 sec) 
select_counter is 1023
Heartbeat CPU 0 instructions: 46000003 cycles: 94594752 heartbeat IPC: 0.50751 cumulative IPC: 0.406201 (Simulation time: 0 hr 27 min 26 sec) 
select_counter is 1022
Heartbeat CPU 0 instructions: 47000001 cycles: 96599696 heartbeat IPC: 0.498766 cumulative IPC: 0.408249 (Simulation time: 0 hr 27 min 59 sec) 
select_counter is 1023
Heartbeat CPU 0 instructions: 48000000 cycles: 98614681 heartbeat IPC: 0.496281 cumulative IPC: 0.410164 (Simulation time: 0 hr 28 min 33 sec) 
select_counter is 1023
Heartbeat CPU 0 instructions: 49000001 cycles: 100602843 heartbeat IPC: 0.502978 cumulative IPC: 0.412114 (Simulation time: 0 hr 29 min 7 sec) 
select_counter is 1023
Heartbeat CPU 0 instructions: 50000002 cycles: 107722599 heartbeat IPC: 0.140454 cumulative IPC: 0.393106 (Simulation time: 0 hr 29 min 52 sec) 
select_counter is 1023
Heartbeat CPU 0 instructions: 51000003 cycles: 109751707 heartbeat IPC: 0.492828 cumulative IPC: 0.395055 (Simulation time: 0 hr 30 min 29 sec) 
select_counter is 1022
Heartbeat CPU 0 instructions: 52000000 cycles: 111762489 heartbeat IPC: 0.497317 cumulative IPC: 0.396999 (Simulation time: 0 hr 31 min 5 sec) 
select_counter is 1023
Heartbeat CPU 0 instructions: 53000003 cycles: 113719145 heartbeat IPC: 0.511078 cumulative IPC: 0.399071 (Simulation time: 0 hr 31 min 40 sec) 
select_counter is 1023
Heartbeat CPU 0 instructions: 54000002 cycles: 115618160 heartbeat IPC: 0.526588 cumulative IPC: 0.401279 (Simulation time: 0 hr 32 min 15 sec) 
select_counter is 1023
Heartbeat CPU 0 instructions: 55000001 cycles: 117554853 heartbeat IPC: 0.516344 cumulative IPC: 0.403276 (Simulation time: 0 hr 32 min 49 sec) 
select_counter is 1023
Heartbeat CPU 0 instructions: 56000000 cycles: 119498206 heartbeat IPC: 0.514574 cumulative IPC: 0.405181 (Simulation time: 0 hr 33 min 26 sec) 
select_counter is 1023
Heartbeat CPU 0 instructions: 57000000 cycles: 121474976 heartbeat IPC: 0.505876 cumulative IPC: 0.406905 (Simulation time: 0 hr 33 min 58 sec) 
select_counter is 1020
Heartbeat CPU 0 instructions: 58000000 cycles: 123485695 heartbeat IPC: 0.497335 cumulative IPC: 0.408452 (Simulation time: 0 hr 34 min 33 sec) 
select_counter is 1023
Heartbeat CPU 0 instructions: 59000002 cycles: 125439239 heartbeat IPC: 0.511891 cumulative IPC: 0.410143 (Simulation time: 0 hr 35 min 11 sec) 
select_counter is 1023
Heartbeat CPU 0 instructions: 60000000 cycles: 127434963 heartbeat IPC: 0.50107 cumulative IPC: 0.411637 (Simulation time: 0 hr 35 min 45 sec) 
select_counter is 1023
Heartbeat CPU 0 instructions: 61000001 cycles: 129471171 heartbeat IPC: 0.491109 cumulative IPC: 0.412947 (Simulation time: 0 hr 36 min 20 sec) 
select_counter is 1022
Heartbeat CPU 0 instructions: 62000000 cycles: 131488064 heartbeat IPC: 0.495812 cumulative IPC: 0.414279 (Simulation time: 0 hr 36 min 55 sec) 
select_counter is 1022
Heartbeat CPU 0 instructions: 63000001 cycles: 138100563 heartbeat IPC: 0.151229 cumulative IPC: 0.401115 (Simulation time: 0 hr 37 min 42 sec) 
select_counter is 1023
Heartbeat CPU 0 instructions: 64000000 cycles: 140650619 heartbeat IPC: 0.392148 cumulative IPC: 0.400945 (Simulation time: 0 hr 38 min 16 sec) 
select_counter is 1023
Heartbeat CPU 0 instructions: 65000002 cycles: 142635843 heartbeat IPC: 0.503722 cumulative IPC: 0.402438 (Simulation time: 0 hr 38 min 51 sec) 
select_counter is 1023
Heartbeat CPU 0 instructions: 66000001 cycles: 144637163 heartbeat IPC: 0.49967 cumulative IPC: 0.403841 (Simulation time: 0 hr 39 min 23 sec) 
select_counter is 1023
Heartbeat CPU 0 instructions: 67000003 cycles: 146617276 heartbeat IPC: 0.505023 cumulative IPC: 0.405266 (Simulation time: 0 hr 39 min 55 sec) 
select_counter is 1023
Heartbeat CPU 0 instructions: 68000000 cycles: 148559783 heartbeat IPC: 0.514797 cumulative IPC: 0.406758 (Simulation time: 0 hr 40 min 24 sec) 
select_counter is 1023
Heartbeat CPU 0 instructions: 69000003 cycles: 150529648 heartbeat IPC: 0.50765 cumulative IPC: 0.408133 (Simulation time: 0 hr 40 min 52 sec) 
select_counter is 1022
Heartbeat CPU 0 instructions: 70000002 cycles: 152527630 heartbeat IPC: 0.500504 cumulative IPC: 0.409392 (Simulation time: 0 hr 41 min 20 sec) 
select_counter is 1023
Heartbeat CPU 0 instructions: 71000000 cycles: 154569260 heartbeat IPC: 0.489804 cumulative IPC: 0.410497 (Simulation time: 0 hr 41 min 48 sec) 
select_counter is 1023
Heartbeat CPU 0 instructions: 72000000 cycles: 156564373 heartbeat IPC: 0.501225 cumulative IPC: 0.411699 (Simulation time: 0 hr 42 min 13 sec) 
select_counter is 1023
Heartbeat CPU 0 instructions: 73000001 cycles: 158554773 heartbeat IPC: 0.502412 cumulative IPC: 0.412882 (Simulation time: 0 hr 42 min 38 sec) 
select_counter is 1023
Heartbeat CPU 0 instructions: 74000003 cycles: 160582054 heartbeat IPC: 0.493273 cumulative IPC: 0.413936 (Simulation time: 0 hr 43 min 1 sec) 
select_counter is 1023
Heartbeat CPU 0 instructions: 75000002 cycles: 162602317 heartbeat IPC: 0.494985 cumulative IPC: 0.414981 (Simulation time: 0 hr 43 min 28 sec) 
select_counter is 1021
Heartbeat CPU 0 instructions: 76000000 cycles: 168260074 heartbeat IPC: 0.176748 cumulative IPC: 0.406676 (Simulation time: 0 hr 43 min 57 sec) 
select_counter is 1020
Heartbeat CPU 0 instructions: 77000001 cycles: 171726578 heartbeat IPC: 0.288475 cumulative IPC: 0.404204 (Simulation time: 0 hr 44 min 24 sec) 
select_counter is 1023
Heartbeat CPU 0 instructions: 78000000 cycles: 173708010 heartbeat IPC: 0.504685 cumulative IPC: 0.405391 (Simulation time: 0 hr 44 min 48 sec) 
select_counter is 1023
Heartbeat CPU 0 instructions: 79000002 cycles: 175658514 heartbeat IPC: 0.512689 cumulative IPC: 0.406624 (Simulation time: 0 hr 45 min 9 sec) 
select_counter is 1023
Heartbeat CPU 0 instructions: 80000000 cycles: 177628691 heartbeat IPC: 0.507568 cumulative IPC: 0.407783 (Simulation time: 0 hr 45 min 32 sec) 
select_counter is 1023
Heartbeat CPU 0 instructions: 81000002 cycles: 179560232 heartbeat IPC: 0.517722 cumulative IPC: 0.409006 (Simulation time: 0 hr 45 min 57 sec) 
select_counter is 1023
Heartbeat CPU 0 instructions: 82000002 cycles: 181435815 heartbeat IPC: 0.533168 cumulative IPC: 0.410333 (Simulation time: 0 hr 46 min 20 sec) 
select_counter is 1023
Heartbeat CPU 0 instructions: 83000003 cycles: 183404172 heartbeat IPC: 0.508038 cumulative IPC: 0.411417 (Simulation time: 0 hr 46 min 40 sec) 
select_counter is 1020
Heartbeat CPU 0 instructions: 84000000 cycles: 185432463 heartbeat IPC: 0.493024 cumulative IPC: 0.41234 (Simulation time: 0 hr 46 min 59 sec) 
select_counter is 1022
Heartbeat CPU 0 instructions: 85000002 cycles: 187428803 heartbeat IPC: 0.500918 cumulative IPC: 0.413314 (Simulation time: 0 hr 47 min 18 sec) 
select_counter is 1021
Heartbeat CPU 0 instructions: 86000003 cycles: 189372235 heartbeat IPC: 0.514554 cumulative IPC: 0.414387 (Simulation time: 0 hr 47 min 34 sec) 
select_counter is 1023
Heartbeat CPU 0 instructions: 87000000 cycles: 191327674 heartbeat IPC: 0.511393 cumulative IPC: 0.41541 (Simulation time: 0 hr 47 min 48 sec) 
select_counter is 1021
Heartbeat CPU 0 instructions: 88000000 cycles: 193307532 heartbeat IPC: 0.505087 cumulative IPC: 0.416358 (Simulation time: 0 hr 48 min 4 sec) 
select_counter is 1023
Heartbeat CPU 0 instructions: 89000001 cycles: 197982394 heartbeat IPC: 0.21391 cumulative IPC: 0.411429 (Simulation time: 0 hr 48 min 19 sec) 
select_counter is 1022
Heartbeat CPU 0 instructions: 90000002 cycles: 202480567 heartbeat IPC: 0.222313 cumulative IPC: 0.4071 (Simulation time: 0 hr 48 min 34 sec) 
select_counter is 1023
Heartbeat CPU 0 instructions: 91000002 cycles: 204414054 heartbeat IPC: 0.5172 cumulative IPC: 0.408173 (Simulation time: 0 hr 48 min 47 sec) 
select_counter is 1023
Heartbeat CPU 0 instructions: 92000000 cycles: 206377434 heartbeat IPC: 0.509325 cumulative IPC: 0.409164 (Simulation time: 0 hr 48 min 59 sec) 
select_counter is 1023
Heartbeat CPU 0 instructions: 93000001 cycles: 208339785 heartbeat IPC: 0.509593 cumulative IPC: 0.410138 (Simulation time: 0 hr 49 min 12 sec) 
select_counter is 1023
Heartbeat CPU 0 instructions: 94000003 cycles: 210335929 heartbeat IPC: 0.500967 cumulative IPC: 0.411025 (Simulation time: 0 hr 49 min 25 sec) 
select_counter is 1023
Heartbeat CPU 0 instructions: 95000000 cycles: 212225107 heartbeat IPC: 0.529329 cumulative IPC: 0.412109 (Simulation time: 0 hr 49 min 38 sec) 
select_counter is 1023
Heartbeat CPU 0 instructions: 96000000 cycles: 214152952 heartbeat IPC: 0.518714 cumulative IPC: 0.413096 (Simulation time: 0 hr 49 min 52 sec) 
select_counter is 1023
Heartbeat CPU 0 instructions: 97000002 cycles: 216163696 heartbeat IPC: 0.497329 cumulative IPC: 0.413902 (Simulation time: 0 hr 50 min 4 sec) 
select_counter is 1022
Heartbeat CPU 0 instructions: 98000000 cycles: 218175101 heartbeat IPC: 0.497164 cumulative IPC: 0.414691 (Simulation time: 0 hr 50 min 14 sec) 
select_counter is 1022
Heartbeat CPU 0 instructions: 99000002 cycles: 220165435 heartbeat IPC: 0.502429 cumulative IPC: 0.415506 (Simulation time: 0 hr 50 min 25 sec) 
select_counter is 1022
Heartbeat CPU 0 instructions: 100000000 cycles: 222107750 heartbeat IPC: 0.514849 cumulative IPC: 0.416399 (Simulation time: 0 hr 50 min 35 sec) 
select_counter is 1022
Heartbeat CPU 0 instructions: 101000002 cycles: 224091697 heartbeat IPC: 0.504047 cumulative IPC: 0.417196 (Simulation time: 0 hr 50 min 45 sec) 
select_counter is 1022
Heartbeat CPU 0 instructions: 102000000 cycles: 227766975 heartbeat IPC: 0.272088 cumulative IPC: 0.414791 (Simulation time: 0 hr 50 min 57 sec) 
select_counter is 1017
Heartbeat CPU 0 instructions: 103000002 cycles: 233286289 heartbeat IPC: 0.181182 cumulative IPC: 0.409119 (Simulation time: 0 hr 51 min 8 sec) 
select_counter is 1022
Heartbeat CPU 0 instructions: 104000000 cycles: 235216666 heartbeat IPC: 0.518032 cumulative IPC: 0.410036 (Simulation time: 0 hr 51 min 17 sec) 
select_counter is 1023
Heartbeat CPU 0 instructions: 105000002 cycles: 237145719 heartbeat IPC: 0.51839 cumulative IPC: 0.410941 (Simulation time: 0 hr 51 min 26 sec) 
select_counter is 1023
Heartbeat CPU 0 instructions: 106000001 cycles: 239129521 heartbeat IPC: 0.504082 cumulative IPC: 0.411733 (Simulation time: 0 hr 51 min 34 sec) 
select_counter is 1022
Heartbeat CPU 0 instructions: 107000003 cycles: 241116387 heartbeat IPC: 0.503306 cumulative IPC: 0.412507 (Simulation time: 0 hr 51 min 42 sec) 
select_counter is 1022
Heartbeat CPU 0 instructions: 108000000 cycles: 243093760 heartbeat IPC: 0.50572 cumulative IPC: 0.413284 (Simulation time: 0 hr 51 min 49 sec) 
select_counter is 1023
Heartbeat CPU 0 instructions: 109000003 cycles: 244970201 heartbeat IPC: 0.532925 cumulative IPC: 0.414223 (Simulation time: 0 hr 51 min 56 sec) 
select_counter is 1023
Heartbeat CPU 0 instructions: 110000002 cycles: 246974435 heartbeat IPC: 0.498943 cumulative IPC: 0.414928 (Simulation time: 0 hr 52 min 2 sec) 
select_counter is 1021
Finished CPU 0 instructions: 100000003 cycles: 241005662 cummulative IPC: 0.414928 (Simulation time: 0 hr 52 min 2 sec) 

ChampSim completed all CPUs

Region of Interest Statistics

CPU 0 cummulative IPC: 0.414928 instructions: 100000003 cycles: 241005662
LLC TOTAL     ACCESS:    1165605  HIT:     336105  MISS:     829500
LLC LOAD      ACCESS:     633144  HIT:     144700  MISS:     488444
LLC RFO       ACCESS:     265372  HIT:      57210  MISS:     208162
LLC PREFETCH  ACCESS:          0  HIT:          0  MISS:          0
LLC WRITEBACK ACCESS:     267089  HIT:     134195  MISS:     132894
Ship samples: 
24, 48, 79, 124, 129, 187, 207, 242, 271, 294, 347, 373, 391, 433, 461, 494, 514, 566, 606, 611, 662, 672, 708, 755, 797, 821, 859, 882, 897, 953, 981, 1013, 1034, 1082, 1115, 1132, 1181, 1206, 1247, 1268, 1282, 1333, 1363, 1377, 1419, 1442, 1474, 1529, 1540, 1588, 1617, 1649, 1671, 1709, 1731, 1779, 1792, 1824, 1874, 1907, 1943, 1967, 1997, 2035, 
Lime duel samples: 
1, 96, 220, 299, 410, 498, 578, 703, 787, 874, 974, 1068, 1169, 1257, 1374, 1466, 1548, 1633, 1745, 1841, 1933, 
Lime samples: 
1, 96, 220, 299, 410, 498, 578, 703, 787, 874, 974, 1068, 1169, 1257, 1374, 1466, 1548, 1633, 1745, 1841, 1933, 
Insertion Distribution: 
	LOAD 2480 0 0 0 0 0 1986 12239 
	RFO 337 0 0 0 0 0 624 5260 
	PREF 0 0 0 0 0 0 0 0 
	WRITEBACK 0 0 0 0 0 0 0 4449 
Total Prefetch Downgrades: 0
