
*** ChampSim Multicore Out-of-Order Simulator ***

Warmup Instructions: 10000000
Simulation Instructions: 100000000
Configuration: 1
Number of CPUs: 1
LLC sets: 2048
LLC ways: 16
Off-chip DRAM Channels: 1 Width: 64-bit Data Rate: 1600 MT/s

CPU 0 runs /datasets/cs240c-wi22-a00-public/data/Assignment2-gz/cactusADM_1495B.trace.gz
Heartbeat CPU 0 instructions: 1000003 cycles: 593354 heartbeat IPC: 1.68534 cumulative IPC: 1.68534 (Simulation time: 0 hr 0 min 28 sec) 
select_counter is 642
Heartbeat CPU 0 instructions: 2000000 cycles: 1186182 heartbeat IPC: 1.68682 cumulative IPC: 1.68608 (Simulation time: 0 hr 1 min 1 sec) 
select_counter is 757
Heartbeat CPU 0 instructions: 3000003 cycles: 1779362 heartbeat IPC: 1.68583 cumulative IPC: 1.686 (Simulation time: 0 hr 1 min 31 sec) 
select_counter is 871
Heartbeat CPU 0 instructions: 4000000 cycles: 2372043 heartbeat IPC: 1.68724 cumulative IPC: 1.68631 (Simulation time: 0 hr 1 min 59 sec) 
select_counter is 994
Heartbeat CPU 0 instructions: 5000000 cycles: 2964991 heartbeat IPC: 1.68649 cumulative IPC: 1.68635 (Simulation time: 0 hr 2 min 28 sec) 
select_counter is 1023
Heartbeat CPU 0 instructions: 6000001 cycles: 3558170 heartbeat IPC: 1.68583 cumulative IPC: 1.68626 (Simulation time: 0 hr 2 min 55 sec) 
select_counter is 1022
Heartbeat CPU 0 instructions: 7000000 cycles: 4150994 heartbeat IPC: 1.68684 cumulative IPC: 1.68634 (Simulation time: 0 hr 3 min 23 sec) 
select_counter is 1023
Heartbeat CPU 0 instructions: 8000000 cycles: 4904103 heartbeat IPC: 1.32783 cumulative IPC: 1.63129 (Simulation time: 0 hr 3 min 56 sec) 
select_counter is 1021
Heartbeat CPU 0 instructions: 9000002 cycles: 5497059 heartbeat IPC: 1.68647 cumulative IPC: 1.63724 (Simulation time: 0 hr 4 min 26 sec) 
select_counter is 1022
Heartbeat CPU 0 instructions: 10000002 cycles: 6089716 heartbeat IPC: 1.68732 cumulative IPC: 1.64211 (Simulation time: 0 hr 4 min 54 sec) 
select_counter is 1023

Warmup complete CPU 0 instructions: 10000002 cycles: 6089716 (Simulation time: 0 hr 4 min 54 sec) 

Heartbeat CPU 0 instructions: 11000000 cycles: 8176644 heartbeat IPC: 0.479172 cumulative IPC: 0.479172 (Simulation time: 0 hr 5 min 26 sec) 
select_counter is 1023
Heartbeat CPU 0 instructions: 12000000 cycles: 10278632 heartbeat IPC: 0.47574 cumulative IPC: 0.47745 (Simulation time: 0 hr 5 min 59 sec) 
select_counter is 1023
Heartbeat CPU 0 instructions: 13000002 cycles: 12398418 heartbeat IPC: 0.471747 cumulative IPC: 0.475534 (Simulation time: 0 hr 6 min 30 sec) 
select_counter is 1023
Heartbeat CPU 0 instructions: 14000001 cycles: 14496637 heartbeat IPC: 0.476594 cumulative IPC: 0.475798 (Simulation time: 0 hr 7 min 4 sec) 
select_counter is 1023
Heartbeat CPU 0 instructions: 15000001 cycles: 16522545 heartbeat IPC: 0.493606 cumulative IPC: 0.479256 (Simulation time: 0 hr 7 min 36 sec) 
select_counter is 1019
Heartbeat CPU 0 instructions: 16000000 cycles: 18628206 heartbeat IPC: 0.47491 cumulative IPC: 0.478526 (Simulation time: 0 hr 8 min 10 sec) 
select_counter is 1023
Heartbeat CPU 0 instructions: 17000003 cycles: 20749248 heartbeat IPC: 0.471468 cumulative IPC: 0.477505 (Simulation time: 0 hr 8 min 44 sec) 
select_counter is 1022
Heartbeat CPU 0 instructions: 18000000 cycles: 22866904 heartbeat IPC: 0.472219 cumulative IPC: 0.476838 (Simulation time: 0 hr 9 min 18 sec) 
select_counter is 1023
Heartbeat CPU 0 instructions: 19000003 cycles: 24961259 heartbeat IPC: 0.477475 cumulative IPC: 0.476909 (Simulation time: 0 hr 9 min 51 sec) 
select_counter is 1021
Heartbeat CPU 0 instructions: 20000000 cycles: 26986989 heartbeat IPC: 0.493648 cumulative IPC: 0.478531 (Simulation time: 0 hr 10 min 24 sec) 
select_counter is 1020
Heartbeat CPU 0 instructions: 21000001 cycles: 33759156 heartbeat IPC: 0.147663 cumulative IPC: 0.39755 (Simulation time: 0 hr 11 min 2 sec) 
select_counter is 1023
Heartbeat CPU 0 instructions: 22000000 cycles: 36221133 heartbeat IPC: 0.406177 cumulative IPC: 0.398255 (Simulation time: 0 hr 11 min 34 sec) 
select_counter is 1023
Heartbeat CPU 0 instructions: 23000001 cycles: 38304535 heartbeat IPC: 0.479985 cumulative IPC: 0.403541 (Simulation time: 0 hr 12 min 8 sec) 
select_counter is 1023
Heartbeat CPU 0 instructions: 24000000 cycles: 40307817 heartbeat IPC: 0.49918 cumulative IPC: 0.40914 (Simulation time: 0 hr 12 min 38 sec) 
select_counter is 1023
Heartbeat CPU 0 instructions: 25000002 cycles: 42384337 heartbeat IPC: 0.481576 cumulative IPC: 0.413284 (Simulation time: 0 hr 13 min 11 sec) 
select_counter is 1023
Heartbeat CPU 0 instructions: 26000000 cycles: 44485693 heartbeat IPC: 0.475882 cumulative IPC: 0.41671 (Simulation time: 0 hr 13 min 42 sec) 
select_counter is 1020
Heartbeat CPU 0 instructions: 27000002 cycles: 46571258 heartbeat IPC: 0.479487 cumulative IPC: 0.419944 (Simulation time: 0 hr 14 min 12 sec) 
select_counter is 1018
Heartbeat CPU 0 instructions: 28000000 cycles: 48626669 heartbeat IPC: 0.48652 cumulative IPC: 0.423161 (Simulation time: 0 hr 14 min 41 sec) 
select_counter is 1023
Heartbeat CPU 0 instructions: 29000003 cycles: 50636574 heartbeat IPC: 0.497537 cumulative IPC: 0.426517 (Simulation time: 0 hr 15 min 10 sec) 
select_counter is 1021
Heartbeat CPU 0 instructions: 30000002 cycles: 52737917 heartbeat IPC: 0.475886 cumulative IPC: 0.428741 (Simulation time: 0 hr 15 min 41 sec) 
select_counter is 1022
Heartbeat CPU 0 instructions: 31000003 cycles: 54824657 heartbeat IPC: 0.479217 cumulative IPC: 0.430902 (Simulation time: 0 hr 16 min 13 sec) 
select_counter is 1022
Heartbeat CPU 0 instructions: 32000000 cycles: 56923333 heartbeat IPC: 0.476489 cumulative IPC: 0.432784 (Simulation time: 0 hr 16 min 41 sec) 
select_counter is 1023
Heartbeat CPU 0 instructions: 33000001 cycles: 58949294 heartbeat IPC: 0.493593 cumulative IPC: 0.435115 (Simulation time: 0 hr 17 min 12 sec) 
select_counter is 1023
Heartbeat CPU 0 instructions: 34000002 cycles: 64768182 heartbeat IPC: 0.171854 cumulative IPC: 0.409009 (Simulation time: 0 hr 17 min 47 sec) 
select_counter is 1023
Heartbeat CPU 0 instructions: 35000002 cycles: 68086809 heartbeat IPC: 0.301329 cumulative IPC: 0.403245 (Simulation time: 0 hr 18 min 18 sec) 
select_counter is 1023
Heartbeat CPU 0 instructions: 36000000 cycles: 70154991 heartbeat IPC: 0.483515 cumulative IPC: 0.405836 (Simulation time: 0 hr 18 min 47 sec) 
select_counter is 1022
Heartbeat CPU 0 instructions: 37000001 cycles: 72184909 heartbeat IPC: 0.492631 cumulative IPC: 0.408502 (Simulation time: 0 hr 19 min 19 sec) 
select_counter is 1023
Heartbeat CPU 0 instructions: 38000003 cycles: 74180813 heartbeat IPC: 0.501027 cumulative IPC: 0.411214 (Simulation time: 0 hr 19 min 46 sec) 
select_counter is 1021
Heartbeat CPU 0 instructions: 39000003 cycles: 76248057 heartbeat IPC: 0.483736 cumulative IPC: 0.413351 (Simulation time: 0 hr 20 min 13 sec) 
select_counter is 1021
Heartbeat CPU 0 instructions: 40000000 cycles: 78311013 heartbeat IPC: 0.48474 cumulative IPC: 0.41539 (Simulation time: 0 hr 20 min 39 sec) 
select_counter is 1022
Heartbeat CPU 0 instructions: 41000002 cycles: 80352592 heartbeat IPC: 0.489818 cumulative IPC: 0.417436 (Simulation time: 0 hr 21 min 4 sec) 
select_counter is 1023
Heartbeat CPU 0 instructions: 42000000 cycles: 82265499 heartbeat IPC: 0.522764 cumulative IPC: 0.420081 (Simulation time: 0 hr 21 min 29 sec) 
select_counter is 1023
Heartbeat CPU 0 instructions: 43000000 cycles: 84166396 heartbeat IPC: 0.526067 cumulative IPC: 0.422661 (Simulation time: 0 hr 21 min 55 sec) 
select_counter is 1023
Heartbeat CPU 0 instructions: 44000000 cycles: 86127492 heartbeat IPC: 0.509919 cumulative IPC: 0.424799 (Simulation time: 0 hr 22 min 20 sec) 
select_counter is 1023
Heartbeat CPU 0 instructions: 45000003 cycles: 88108587 heartbeat IPC: 0.504773 cumulative IPC: 0.426731 (Simulation time: 0 hr 22 min 45 sec) 
select_counter is 1023
Heartbeat CPU 0 instructions: 46000002 cycles: 90057544 heartbeat IPC: 0.513094 cumulative IPC: 0.428736 (Simulation time: 0 hr 23 min 10 sec) 
select_counter is 1023
Heartbeat CPU 0 instructions: 47000002 cycles: 94777902 heartbeat IPC: 0.211848 cumulative IPC: 0.417192 (Simulation time: 0 hr 23 min 38 sec) 
select_counter is 1021
Heartbeat CPU 0 instructions: 48000000 cycles: 99053822 heartbeat IPC: 0.233867 cumulative IPC: 0.40876 (Simulation time: 0 hr 24 min 6 sec) 
select_counter is 1021
Heartbeat CPU 0 instructions: 49000000 cycles: 101050702 heartbeat IPC: 0.500781 cumulative IPC: 0.410695 (Simulation time: 0 hr 24 min 31 sec) 
select_counter is 1023
Heartbeat CPU 0 instructions: 50000000 cycles: 103060247 heartbeat IPC: 0.497625 cumulative IPC: 0.412496 (Simulation time: 0 hr 24 min 56 sec) 
select_counter is 1022
Heartbeat CPU 0 instructions: 51000001 cycles: 104992537 heartbeat IPC: 0.517521 cumulative IPC: 0.414548 (Simulation time: 0 hr 25 min 22 sec) 
select_counter is 1023
Heartbeat CPU 0 instructions: 52000000 cycles: 106917905 heartbeat IPC: 0.519381 cumulative IPC: 0.41655 (Simulation time: 0 hr 25 min 49 sec) 
select_counter is 1023
Heartbeat CPU 0 instructions: 53000003 cycles: 108871122 heartbeat IPC: 0.511977 cumulative IPC: 0.418364 (Simulation time: 0 hr 26 min 15 sec) 
select_counter is 1023
Heartbeat CPU 0 instructions: 54000001 cycles: 110804412 heartbeat IPC: 0.517252 cumulative IPC: 0.420189 (Simulation time: 0 hr 26 min 41 sec) 
select_counter is 1023
Heartbeat CPU 0 instructions: 55000000 cycles: 112744647 heartbeat IPC: 0.515401 cumulative IPC: 0.421921 (Simulation time: 0 hr 27 min 7 sec) 
select_counter is 1023
Heartbeat CPU 0 instructions: 56000000 cycles: 114639484 heartbeat IPC: 0.52775 cumulative IPC: 0.423769 (Simulation time: 0 hr 27 min 32 sec) 
select_counter is 1023
Heartbeat CPU 0 instructions: 57000000 cycles: 116581062 heartbeat IPC: 0.515045 cumulative IPC: 0.425373 (Simulation time: 0 hr 27 min 59 sec) 
select_counter is 1021
Heartbeat CPU 0 instructions: 58000002 cycles: 118580074 heartbeat IPC: 0.500248 cumulative IPC: 0.426703 (Simulation time: 0 hr 28 min 24 sec) 
select_counter is 1022
Heartbeat CPU 0 instructions: 59000001 cycles: 120602068 heartbeat IPC: 0.494561 cumulative IPC: 0.427901 (Simulation time: 0 hr 28 min 50 sec) 
select_counter is 1022
Heartbeat CPU 0 instructions: 60000000 cycles: 124302054 heartbeat IPC: 0.270271 cumulative IPC: 0.422968 (Simulation time: 0 hr 29 min 18 sec) 
select_counter is 1023
Heartbeat CPU 0 instructions: 61000001 cycles: 129625818 heartbeat IPC: 0.187837 cumulative IPC: 0.412835 (Simulation time: 0 hr 29 min 47 sec) 
select_counter is 1023
Heartbeat CPU 0 instructions: 62000000 cycles: 131627281 heartbeat IPC: 0.499634 cumulative IPC: 0.414219 (Simulation time: 0 hr 30 min 13 sec) 
select_counter is 1023
Heartbeat CPU 0 instructions: 63000001 cycles: 133621705 heartbeat IPC: 0.501398 cumulative IPC: 0.415582 (Simulation time: 0 hr 30 min 38 sec) 
select_counter is 1023
Heartbeat CPU 0 instructions: 64000000 cycles: 135590428 heartbeat IPC: 0.507943 cumulative IPC: 0.416986 (Simulation time: 0 hr 31 min 3 sec) 
select_counter is 1022
Heartbeat CPU 0 instructions: 65000002 cycles: 137453896 heartbeat IPC: 0.536635 cumulative IPC: 0.418683 (Simulation time: 0 hr 31 min 31 sec) 
select_counter is 1023
Heartbeat CPU 0 instructions: 66000003 cycles: 139332479 heartbeat IPC: 0.532317 cumulative IPC: 0.420285 (Simulation time: 0 hr 31 min 56 sec) 
select_counter is 1022
Heartbeat CPU 0 instructions: 67000001 cycles: 141280863 heartbeat IPC: 0.513245 cumulative IPC: 0.421625 (Simulation time: 0 hr 32 min 21 sec) 
select_counter is 1023
Heartbeat CPU 0 instructions: 68000000 cycles: 143212264 heartbeat IPC: 0.517758 cumulative IPC: 0.422979 (Simulation time: 0 hr 32 min 45 sec) 
select_counter is 1023
Heartbeat CPU 0 instructions: 69000003 cycles: 145150077 heartbeat IPC: 0.516047 cumulative IPC: 0.424276 (Simulation time: 0 hr 33 min 10 sec) 
select_counter is 1023
Heartbeat CPU 0 instructions: 70000000 cycles: 147044144 heartbeat IPC: 0.527963 cumulative IPC: 0.425669 (Simulation time: 0 hr 33 min 34 sec) 
select_counter is 1023
Heartbeat CPU 0 instructions: 71000000 cycles: 148983722 heartbeat IPC: 0.515576 cumulative IPC: 0.42689 (Simulation time: 0 hr 33 min 59 sec) 
select_counter is 1023
Heartbeat CPU 0 instructions: 72000000 cycles: 150963542 heartbeat IPC: 0.505096 cumulative IPC: 0.427959 (Simulation time: 0 hr 34 min 25 sec) 
select_counter is 1023
Heartbeat CPU 0 instructions: 73000001 cycles: 153684377 heartbeat IPC: 0.367535 cumulative IPC: 0.426845 (Simulation time: 0 hr 34 min 53 sec) 
select_counter is 1022
Heartbeat CPU 0 instructions: 74000002 cycles: 159983312 heartbeat IPC: 0.158757 cumulative IPC: 0.415872 (Simulation time: 0 hr 35 min 23 sec) 
select_counter is 1022
Heartbeat CPU 0 instructions: 75000002 cycles: 161936409 heartbeat IPC: 0.512007 cumulative IPC: 0.417077 (Simulation time: 0 hr 35 min 49 sec) 
select_counter is 1022
Heartbeat CPU 0 instructions: 76000000 cycles: 163923150 heartbeat IPC: 0.503336 cumulative IPC: 0.418162 (Simulation time: 0 hr 36 min 15 sec) 
select_counter is 1021
Heartbeat CPU 0 instructions: 77000001 cycles: 165877795 heartbeat IPC: 0.511602 cumulative IPC: 0.419305 (Simulation time: 0 hr 36 min 40 sec) 
select_counter is 1023
Heartbeat CPU 0 instructions: 78000000 cycles: 167816882 heartbeat IPC: 0.515706 cumulative IPC: 0.420461 (Simulation time: 0 hr 37 min 6 sec) 
select_counter is 1022
Heartbeat CPU 0 instructions: 79000003 cycles: 169654128 heartbeat IPC: 0.544295 cumulative IPC: 0.421852 (Simulation time: 0 hr 37 min 31 sec) 
select_counter is 1023
Heartbeat CPU 0 instructions: 80000000 cycles: 171591633 heartbeat IPC: 0.516126 cumulative IPC: 0.422956 (Simulation time: 0 hr 37 min 55 sec) 
select_counter is 1022
Heartbeat CPU 0 instructions: 81000002 cycles: 173500578 heartbeat IPC: 0.523851 cumulative IPC: 0.424106 (Simulation time: 0 hr 38 min 22 sec) 
select_counter is 1023
Heartbeat CPU 0 instructions: 82000003 cycles: 175456990 heartbeat IPC: 0.51114 cumulative IPC: 0.425112 (Simulation time: 0 hr 38 min 45 sec) 
select_counter is 1023
Heartbeat CPU 0 instructions: 83000000 cycles: 177357497 heartbeat IPC: 0.526174 cumulative IPC: 0.426233 (Simulation time: 0 hr 39 min 8 sec) 
select_counter is 1023
Heartbeat CPU 0 instructions: 84000000 cycles: 179273174 heartbeat IPC: 0.522009 cumulative IPC: 0.427293 (Simulation time: 0 hr 39 min 30 sec) 
select_counter is 1023
Heartbeat CPU 0 instructions: 85000003 cycles: 181317665 heartbeat IPC: 0.489121 cumulative IPC: 0.428014 (Simulation time: 0 hr 39 min 52 sec) 
select_counter is 1023
Heartbeat CPU 0 instructions: 86000000 cycles: 183302485 heartbeat IPC: 0.503823 cumulative IPC: 0.428863 (Simulation time: 0 hr 40 min 13 sec) 
select_counter is 1023
Heartbeat CPU 0 instructions: 87000001 cycles: 190435248 heartbeat IPC: 0.140198 cumulative IPC: 0.417694 (Simulation time: 0 hr 40 min 38 sec) 
select_counter is 1023
Heartbeat CPU 0 instructions: 88000000 cycles: 192316491 heartbeat IPC: 0.531563 cumulative IPC: 0.418844 (Simulation time: 0 hr 40 min 59 sec) 
select_counter is 1023
Heartbeat CPU 0 instructions: 89000002 cycles: 194283495 heartbeat IPC: 0.508388 cumulative IPC: 0.41978 (Simulation time: 0 hr 41 min 20 sec) 
select_counter is 1021
Heartbeat CPU 0 instructions: 90000001 cycles: 196295838 heartbeat IPC: 0.496933 cumulative IPC: 0.420596 (Simulation time: 0 hr 41 min 41 sec) 
select_counter is 1022
Heartbeat CPU 0 instructions: 91000002 cycles: 198222128 heartbeat IPC: 0.519133 cumulative IPC: 0.421584 (Simulation time: 0 hr 42 min 1 sec) 
select_counter is 1019
Heartbeat CPU 0 instructions: 92000000 cycles: 200082661 heartbeat IPC: 0.537479 cumulative IPC: 0.422696 (Simulation time: 0 hr 42 min 20 sec) 
select_counter is 1021
Heartbeat CPU 0 instructions: 93000002 cycles: 201974322 heartbeat IPC: 0.528637 cumulative IPC: 0.423719 (Simulation time: 0 hr 42 min 40 sec) 
select_counter is 1023
Heartbeat CPU 0 instructions: 94000002 cycles: 203895977 heartbeat IPC: 0.520385 cumulative IPC: 0.424658 (Simulation time: 0 hr 43 min 0 sec) 
select_counter is 1023
Heartbeat CPU 0 instructions: 95000003 cycles: 205835192 heartbeat IPC: 0.515673 cumulative IPC: 0.425542 (Simulation time: 0 hr 43 min 20 sec) 
select_counter is 1023
Heartbeat CPU 0 instructions: 96000000 cycles: 207797744 heartbeat IPC: 0.509539 cumulative IPC: 0.426359 (Simulation time: 0 hr 43 min 38 sec) 
select_counter is 1022
Heartbeat CPU 0 instructions: 97000003 cycles: 209660070 heartbeat IPC: 0.536965 cumulative IPC: 0.427371 (Simulation time: 0 hr 43 min 57 sec) 
select_counter is 1020
Heartbeat CPU 0 instructions: 98000003 cycles: 211615344 heartbeat IPC: 0.511437 cumulative IPC: 0.42817 (Simulation time: 0 hr 44 min 15 sec) 
select_counter is 1023
Heartbeat CPU 0 instructions: 99000000 cycles: 213618214 heartbeat IPC: 0.499282 cumulative IPC: 0.428857 (Simulation time: 0 hr 44 min 34 sec) 
select_counter is 1021
Heartbeat CPU 0 instructions: 100000000 cycles: 220767864 heartbeat IPC: 0.139867 cumulative IPC: 0.419232 (Simulation time: 0 hr 44 min 56 sec) 
select_counter is 1023
Heartbeat CPU 0 instructions: 101000000 cycles: 222686996 heartbeat IPC: 0.521069 cumulative IPC: 0.420135 (Simulation time: 0 hr 45 min 14 sec) 
select_counter is 1023
Heartbeat CPU 0 instructions: 102000003 cycles: 224605575 heartbeat IPC: 0.521221 cumulative IPC: 0.421022 (Simulation time: 0 hr 45 min 31 sec) 
select_counter is 1022
Heartbeat CPU 0 instructions: 103000000 cycles: 226569813 heartbeat IPC: 0.509102 cumulative IPC: 0.421807 (Simulation time: 0 hr 45 min 48 sec) 
select_counter is 1023
Heartbeat CPU 0 instructions: 104000000 cycles: 228494603 heartbeat IPC: 0.519537 cumulative IPC: 0.422653 (Simulation time: 0 hr 46 min 5 sec) 
select_counter is 1023
Heartbeat CPU 0 instructions: 105000001 cycles: 230384793 heartbeat IPC: 0.529048 cumulative IPC: 0.423549 (Simulation time: 0 hr 46 min 22 sec) 
select_counter is 1023
Heartbeat CPU 0 instructions: 106000000 cycles: 232276369 heartbeat IPC: 0.528659 cumulative IPC: 0.424428 (Simulation time: 0 hr 46 min 39 sec) 
select_counter is 1023
Heartbeat CPU 0 instructions: 107000001 cycles: 234175416 heartbeat IPC: 0.52658 cumulative IPC: 0.425279 (Simulation time: 0 hr 46 min 55 sec) 
select_counter is 1023
Heartbeat CPU 0 instructions: 108000000 cycles: 236129213 heartbeat IPC: 0.511823 cumulative IPC: 0.426014 (Simulation time: 0 hr 47 min 10 sec) 
select_counter is 1023
Heartbeat CPU 0 instructions: 109000002 cycles: 238128902 heartbeat IPC: 0.500079 cumulative IPC: 0.426652 (Simulation time: 0 hr 47 min 25 sec) 
select_counter is 1023
Heartbeat CPU 0 instructions: 110000001 cycles: 240079042 heartbeat IPC: 0.512783 cumulative IPC: 0.42737 (Simulation time: 0 hr 47 min 38 sec) 
select_counter is 1021
Finished CPU 0 instructions: 100000003 cycles: 233989327 cummulative IPC: 0.42737 (Simulation time: 0 hr 47 min 38 sec) 

ChampSim completed all CPUs

Region of Interest Statistics

CPU 0 cummulative IPC: 0.42737 instructions: 100000003 cycles: 233989327
LLC TOTAL     ACCESS:    1105151  HIT:     319236  MISS:     785915
LLC LOAD      ACCESS:     614444  HIT:     149344  MISS:     465100
LLC RFO       ACCESS:     245232  HIT:      53993  MISS:     191239
LLC PREFETCH  ACCESS:          0  HIT:          0  MISS:          0
LLC WRITEBACK ACCESS:     245475  HIT:     115899  MISS:     129576
Ship samples: 
16, 39, 78, 101, 148, 179, 196, 255, 286, 302, 348, 374, 393, 447, 448, 501, 534, 553, 576, 626, 648, 680, 731, 747, 786, 826, 832, 877, 903, 931, 988, 994, 1043, 1072, 1088, 1143, 1182, 1206, 1220, 1270, 1290, 1318, 1346, 1396, 1439, 1457, 1487, 1518, 1567, 1589, 1601, 1640, 1676, 1721, 1729, 1768, 1792, 1846, 1857, 1900, 1921, 1980, 1994, 2031, 
Lime duel samples: 
9, 103, 202, 290, 414, 495, 606, 700, 797, 881, 967, 1067, 1161, 1250, 1354, 1463, 1538, 1644, 1745, 1838, 1920, 
Lime samples: 
9, 103, 202, 290, 414, 495, 606, 700, 797, 881, 967, 1067, 1161, 1250, 1354, 1463, 1538, 1644, 1745, 1838, 1920, 
Insertion Distribution: 
	LOAD 1361 0 0 0 0 0 2086 12568 
	RFO 996 0 0 0 0 0 703 5252 
	PREF 0 0 0 0 0 0 0 0 
	WRITEBACK 0 0 0 0 0 0 0 4495 
Total Prefetch Downgrades: 0
