
*** ChampSim Multicore Out-of-Order Simulator ***

Warmup Instructions: 10000000
Simulation Instructions: 100000000
Configuration: 2
Number of CPUs: 1
LLC sets: 2048
LLC ways: 16
Off-chip DRAM Channels: 1 Width: 64-bit Data Rate: 1600 MT/s

CPU 0 runs /datasets/cs240c-wi22-a00-public/data/Assignment2-gz/cactusADM_1039B.trace.gz
CPU 0 L1D next line prefetcher
CPU 0 L2C IP-based stride prefetcher
Initialize SRRIP state
Heartbeat CPU 0 instructions: 1000000 cycles: 595518 heartbeat IPC: 1.67921 cumulative IPC: 1.67921 (Simulation time: 0 hr 0 min 53 sec) 
Heartbeat CPU 0 instructions: 2000002 cycles: 1190937 heartbeat IPC: 1.67949 cumulative IPC: 1.67935 (Simulation time: 0 hr 1 min 38 sec) 
Heartbeat CPU 0 instructions: 3000003 cycles: 1786622 heartbeat IPC: 1.67874 cumulative IPC: 1.67915 (Simulation time: 0 hr 2 min 25 sec) 
Heartbeat CPU 0 instructions: 4000000 cycles: 2382046 heartbeat IPC: 1.67947 cumulative IPC: 1.67923 (Simulation time: 0 hr 3 min 12 sec) 
Heartbeat CPU 0 instructions: 5000001 cycles: 2977457 heartbeat IPC: 1.67951 cumulative IPC: 1.67929 (Simulation time: 0 hr 3 min 58 sec) 
Heartbeat CPU 0 instructions: 6000002 cycles: 3572930 heartbeat IPC: 1.67934 cumulative IPC: 1.67929 (Simulation time: 0 hr 4 min 42 sec) 
Heartbeat CPU 0 instructions: 7000000 cycles: 4168306 heartbeat IPC: 1.67961 cumulative IPC: 1.67934 (Simulation time: 0 hr 5 min 28 sec) 
Heartbeat CPU 0 instructions: 8000000 cycles: 4763681 heartbeat IPC: 1.67961 cumulative IPC: 1.67937 (Simulation time: 0 hr 6 min 14 sec) 
Heartbeat CPU 0 instructions: 9000002 cycles: 5359336 heartbeat IPC: 1.67883 cumulative IPC: 1.67931 (Simulation time: 0 hr 6 min 58 sec) 
Heartbeat CPU 0 instructions: 10000003 cycles: 5974113 heartbeat IPC: 1.62661 cumulative IPC: 1.67389 (Simulation time: 0 hr 7 min 45 sec) 

Warmup complete CPU 0 instructions: 10000003 cycles: 5974113 (Simulation time: 0 hr 7 min 45 sec) 

Heartbeat CPU 0 instructions: 11000003 cycles: 12128139 heartbeat IPC: 0.162495 cumulative IPC: 0.162495 (Simulation time: 0 hr 8 min 42 sec) 
Heartbeat CPU 0 instructions: 12000000 cycles: 13871151 heartbeat IPC: 0.573718 cumulative IPC: 0.253259 (Simulation time: 0 hr 9 min 31 sec) 
Heartbeat CPU 0 instructions: 13000002 cycles: 15538685 heartbeat IPC: 0.599689 cumulative IPC: 0.313657 (Simulation time: 0 hr 10 min 18 sec) 
Heartbeat CPU 0 instructions: 14000001 cycles: 17246509 heartbeat IPC: 0.58554 cumulative IPC: 0.354849 (Simulation time: 0 hr 11 min 6 sec) 
Heartbeat CPU 0 instructions: 15000002 cycles: 18989814 heartbeat IPC: 0.573624 cumulative IPC: 0.384151 (Simulation time: 0 hr 11 min 53 sec) 
Heartbeat CPU 0 instructions: 16000000 cycles: 20736593 heartbeat IPC: 0.572481 cumulative IPC: 0.406436 (Simulation time: 0 hr 12 min 43 sec) 
Heartbeat CPU 0 instructions: 17000003 cycles: 22460437 heartbeat IPC: 0.580101 cumulative IPC: 0.424594 (Simulation time: 0 hr 13 min 31 sec) 
Heartbeat CPU 0 instructions: 18000002 cycles: 24115414 heartbeat IPC: 0.604237 cumulative IPC: 0.440983 (Simulation time: 0 hr 14 min 18 sec) 
Heartbeat CPU 0 instructions: 19000003 cycles: 25852751 heartbeat IPC: 0.575594 cumulative IPC: 0.452747 (Simulation time: 0 hr 15 min 6 sec) 
Heartbeat CPU 0 instructions: 20000000 cycles: 27596483 heartbeat IPC: 0.573481 cumulative IPC: 0.462484 (Simulation time: 0 hr 15 min 53 sec) 
Heartbeat CPU 0 instructions: 21000002 cycles: 29340249 heartbeat IPC: 0.573473 cumulative IPC: 0.470767 (Simulation time: 0 hr 16 min 41 sec) 
Heartbeat CPU 0 instructions: 22000003 cycles: 31030902 heartbeat IPC: 0.591488 cumulative IPC: 0.478912 (Simulation time: 0 hr 17 min 27 sec) 
Heartbeat CPU 0 instructions: 23000001 cycles: 32715911 heartbeat IPC: 0.593467 cumulative IPC: 0.48613 (Simulation time: 0 hr 18 min 16 sec) 
Heartbeat CPU 0 instructions: 24000000 cycles: 39377532 heartbeat IPC: 0.150113 cumulative IPC: 0.419119 (Simulation time: 0 hr 19 min 15 sec) 
Heartbeat CPU 0 instructions: 25000002 cycles: 41115574 heartbeat IPC: 0.575361 cumulative IPC: 0.426846 (Simulation time: 0 hr 20 min 2 sec) 
Heartbeat CPU 0 instructions: 26000002 cycles: 42840752 heartbeat IPC: 0.57965 cumulative IPC: 0.433997 (Simulation time: 0 hr 20 min 50 sec) 
Heartbeat CPU 0 instructions: 27000002 cycles: 44506356 heartbeat IPC: 0.600383 cumulative IPC: 0.441189 (Simulation time: 0 hr 21 min 38 sec) 
Heartbeat CPU 0 instructions: 28000000 cycles: 46236698 heartbeat IPC: 0.577919 cumulative IPC: 0.447065 (Simulation time: 0 hr 22 min 26 sec) 
Heartbeat CPU 0 instructions: 29000000 cycles: 47978100 heartbeat IPC: 0.57425 cumulative IPC: 0.452338 (Simulation time: 0 hr 23 min 13 sec) 
Heartbeat CPU 0 instructions: 30000003 cycles: 49717243 heartbeat IPC: 0.574998 cumulative IPC: 0.457215 (Simulation time: 0 hr 24 min 3 sec) 
Heartbeat CPU 0 instructions: 31000001 cycles: 51413008 heartbeat IPC: 0.589703 cumulative IPC: 0.462159 (Simulation time: 0 hr 24 min 51 sec) 
Heartbeat CPU 0 instructions: 32000000 cycles: 53088600 heartbeat IPC: 0.596803 cumulative IPC: 0.466948 (Simulation time: 0 hr 25 min 38 sec) 
Heartbeat CPU 0 instructions: 33000001 cycles: 54826378 heartbeat IPC: 0.575448 cumulative IPC: 0.470807 (Simulation time: 0 hr 26 min 24 sec) 
Heartbeat CPU 0 instructions: 34000000 cycles: 56567195 heartbeat IPC: 0.574442 cumulative IPC: 0.474373 (Simulation time: 0 hr 27 min 12 sec) 
Heartbeat CPU 0 instructions: 35000001 cycles: 58303409 heartbeat IPC: 0.575966 cumulative IPC: 0.477744 (Simulation time: 0 hr 27 min 59 sec) 
Heartbeat CPU 0 instructions: 36000000 cycles: 59967922 heartbeat IPC: 0.600776 cumulative IPC: 0.481537 (Simulation time: 0 hr 28 min 49 sec) 
Heartbeat CPU 0 instructions: 37000002 cycles: 66561137 heartbeat IPC: 0.151671 cumulative IPC: 0.44564 (Simulation time: 0 hr 29 min 47 sec) 
Heartbeat CPU 0 instructions: 38000001 cycles: 68302119 heartbeat IPC: 0.574388 cumulative IPC: 0.449236 (Simulation time: 0 hr 30 min 36 sec) 
Heartbeat CPU 0 instructions: 39000002 cycles: 70044166 heartbeat IPC: 0.574038 cumulative IPC: 0.45263 (Simulation time: 0 hr 31 min 24 sec) 
Heartbeat CPU 0 instructions: 40000000 cycles: 71742245 heartbeat IPC: 0.5889 cumulative IPC: 0.456148 (Simulation time: 0 hr 32 min 9 sec) 
Heartbeat CPU 0 instructions: 41000003 cycles: 73413740 heartbeat IPC: 0.598269 cumulative IPC: 0.45967 (Simulation time: 0 hr 32 min 57 sec) 
Heartbeat CPU 0 instructions: 42000000 cycles: 75151031 heartbeat IPC: 0.575607 cumulative IPC: 0.462582 (Simulation time: 0 hr 33 min 43 sec) 
Heartbeat CPU 0 instructions: 43000000 cycles: 76892890 heartbeat IPC: 0.574099 cumulative IPC: 0.465321 (Simulation time: 0 hr 34 min 31 sec) 
Heartbeat CPU 0 instructions: 44000000 cycles: 78631834 heartbeat IPC: 0.575062 cumulative IPC: 0.467947 (Simulation time: 0 hr 35 min 19 sec) 
Heartbeat CPU 0 instructions: 45000000 cycles: 80301312 heartbeat IPC: 0.59899 cumulative IPC: 0.470891 (Simulation time: 0 hr 36 min 5 sec) 
Heartbeat CPU 0 instructions: 46000003 cycles: 82006653 heartbeat IPC: 0.586395 cumulative IPC: 0.473481 (Simulation time: 0 hr 36 min 57 sec) 
Heartbeat CPU 0 instructions: 47000001 cycles: 83747783 heartbeat IPC: 0.574338 cumulative IPC: 0.475739 (Simulation time: 0 hr 37 min 46 sec) 
Heartbeat CPU 0 instructions: 48000000 cycles: 85489917 heartbeat IPC: 0.574008 cumulative IPC: 0.477892 (Simulation time: 0 hr 38 min 32 sec) 
Heartbeat CPU 0 instructions: 49000001 cycles: 87215175 heartbeat IPC: 0.579624 cumulative IPC: 0.480053 (Simulation time: 0 hr 39 min 20 sec) 
Heartbeat CPU 0 instructions: 50000000 cycles: 93855942 heartbeat IPC: 0.150585 cumulative IPC: 0.455157 (Simulation time: 0 hr 40 min 15 sec) 
Heartbeat CPU 0 instructions: 51000003 cycles: 95620668 heartbeat IPC: 0.566662 cumulative IPC: 0.457352 (Simulation time: 0 hr 41 min 2 sec) 
Heartbeat CPU 0 instructions: 52000000 cycles: 97393301 heartbeat IPC: 0.564131 cumulative IPC: 0.459422 (Simulation time: 0 hr 41 min 52 sec) 
Heartbeat CPU 0 instructions: 53000003 cycles: 99163562 heartbeat IPC: 0.56489 cumulative IPC: 0.461426 (Simulation time: 0 hr 42 min 41 sec) 
Heartbeat CPU 0 instructions: 54000002 cycles: 100880550 heartbeat IPC: 0.582415 cumulative IPC: 0.463614 (Simulation time: 0 hr 43 min 30 sec) 
Heartbeat CPU 0 instructions: 55000001 cycles: 102606653 heartbeat IPC: 0.579339 cumulative IPC: 0.465682 (Simulation time: 0 hr 44 min 20 sec) 
Heartbeat CPU 0 instructions: 56000000 cycles: 104376599 heartbeat IPC: 0.564988 cumulative IPC: 0.467468 (Simulation time: 0 hr 45 min 8 sec) 
Heartbeat CPU 0 instructions: 57000000 cycles: 106151376 heartbeat IPC: 0.563451 cumulative IPC: 0.469168 (Simulation time: 0 hr 45 min 53 sec) 
Heartbeat CPU 0 instructions: 58000000 cycles: 107915932 heartbeat IPC: 0.566715 cumulative IPC: 0.470857 (Simulation time: 0 hr 46 min 39 sec) 
Heartbeat CPU 0 instructions: 59000002 cycles: 109603978 heartbeat IPC: 0.592402 cumulative IPC: 0.472837 (Simulation time: 0 hr 47 min 26 sec) 
Heartbeat CPU 0 instructions: 60000000 cycles: 111363744 heartbeat IPC: 0.568256 cumulative IPC: 0.47443 (Simulation time: 0 hr 48 min 14 sec) 
Heartbeat CPU 0 instructions: 61000001 cycles: 113138702 heartbeat IPC: 0.563394 cumulative IPC: 0.475903 (Simulation time: 0 hr 49 min 3 sec) 
Heartbeat CPU 0 instructions: 62000000 cycles: 114911945 heartbeat IPC: 0.563938 cumulative IPC: 0.477336 (Simulation time: 0 hr 49 min 51 sec) 
Heartbeat CPU 0 instructions: 63000001 cycles: 121128422 heartbeat IPC: 0.160863 cumulative IPC: 0.460252 (Simulation time: 0 hr 50 min 44 sec) 
Heartbeat CPU 0 instructions: 64000000 cycles: 123397407 heartbeat IPC: 0.440725 cumulative IPC: 0.459875 (Simulation time: 0 hr 51 min 29 sec) 
Heartbeat CPU 0 instructions: 65000002 cycles: 125168891 heartbeat IPC: 0.5645 cumulative IPC: 0.46143 (Simulation time: 0 hr 52 min 16 sec) 
Heartbeat CPU 0 instructions: 66000001 cycles: 126940466 heartbeat IPC: 0.564469 cumulative IPC: 0.462939 (Simulation time: 0 hr 53 min 2 sec) 
Heartbeat CPU 0 instructions: 67000003 cycles: 128706427 heartbeat IPC: 0.566265 cumulative IPC: 0.464425 (Simulation time: 0 hr 53 min 47 sec) 
Heartbeat CPU 0 instructions: 68000000 cycles: 130433471 heartbeat IPC: 0.579022 cumulative IPC: 0.466016 (Simulation time: 0 hr 54 min 33 sec) 
Heartbeat CPU 0 instructions: 69000003 cycles: 132211897 heartbeat IPC: 0.562297 cumulative IPC: 0.467372 (Simulation time: 0 hr 55 min 17 sec) 
Heartbeat CPU 0 instructions: 70000002 cycles: 133983671 heartbeat IPC: 0.564406 cumulative IPC: 0.468715 (Simulation time: 0 hr 56 min 2 sec) 
Heartbeat CPU 0 instructions: 71000000 cycles: 135756243 heartbeat IPC: 0.564151 cumulative IPC: 0.470018 (Simulation time: 0 hr 56 min 48 sec) 
Heartbeat CPU 0 instructions: 72000000 cycles: 137503615 heartbeat IPC: 0.572288 cumulative IPC: 0.471377 (Simulation time: 0 hr 57 min 34 sec) 
Heartbeat CPU 0 instructions: 73000001 cycles: 139204734 heartbeat IPC: 0.587849 cumulative IPC: 0.472864 (Simulation time: 0 hr 58 min 19 sec) 
Heartbeat CPU 0 instructions: 74000003 cycles: 140972645 heartbeat IPC: 0.56564 cumulative IPC: 0.474079 (Simulation time: 0 hr 59 min 2 sec) 
Heartbeat CPU 0 instructions: 75000002 cycles: 142745956 heartbeat IPC: 0.563916 cumulative IPC: 0.475244 (Simulation time: 0 hr 59 min 46 sec) 
Heartbeat CPU 0 instructions: 76000000 cycles: 148018360 heartbeat IPC: 0.189666 cumulative IPC: 0.464644 (Simulation time: 1 hr 0 min 34 sec) 
Heartbeat CPU 0 instructions: 77000001 cycles: 151188557 heartbeat IPC: 0.315438 cumulative IPC: 0.461387 (Simulation time: 1 hr 1 min 17 sec) 
Heartbeat CPU 0 instructions: 78000000 cycles: 152937282 heartbeat IPC: 0.571845 cumulative IPC: 0.462701 (Simulation time: 1 hr 1 min 58 sec) 
Heartbeat CPU 0 instructions: 79000002 cycles: 154706844 heartbeat IPC: 0.565113 cumulative IPC: 0.463919 (Simulation time: 1 hr 2 min 35 sec) 
Heartbeat CPU 0 instructions: 80000000 cycles: 156476933 heartbeat IPC: 0.564942 cumulative IPC: 0.465108 (Simulation time: 1 hr 3 min 11 sec) 
Heartbeat CPU 0 instructions: 81000002 cycles: 158225924 heartbeat IPC: 0.571759 cumulative IPC: 0.466333 (Simulation time: 1 hr 3 min 44 sec) 
Heartbeat CPU 0 instructions: 82000002 cycles: 159921454 heartbeat IPC: 0.589786 cumulative IPC: 0.467692 (Simulation time: 1 hr 4 min 20 sec) 
Heartbeat CPU 0 instructions: 83000003 cycles: 161688967 heartbeat IPC: 0.565767 cumulative IPC: 0.468806 (Simulation time: 1 hr 4 min 55 sec) 
Heartbeat CPU 0 instructions: 84000000 cycles: 163459448 heartbeat IPC: 0.564817 cumulative IPC: 0.469885 (Simulation time: 1 hr 5 min 27 sec) 
Heartbeat CPU 0 instructions: 85000002 cycles: 165230610 heartbeat IPC: 0.564602 cumulative IPC: 0.470938 (Simulation time: 1 hr 5 min 59 sec) 
Heartbeat CPU 0 instructions: 86000003 cycles: 166945762 heartbeat IPC: 0.583039 cumulative IPC: 0.472133 (Simulation time: 1 hr 6 min 32 sec) 
Heartbeat CPU 0 instructions: 87000000 cycles: 168689081 heartbeat IPC: 0.573617 cumulative IPC: 0.47322 (Simulation time: 1 hr 7 min 5 sec) 
Heartbeat CPU 0 instructions: 88000000 cycles: 170458963 heartbeat IPC: 0.565009 cumulative IPC: 0.474208 (Simulation time: 1 hr 7 min 37 sec) 
Heartbeat CPU 0 instructions: 89000001 cycles: 174795358 heartbeat IPC: 0.230607 cumulative IPC: 0.467951 (Simulation time: 1 hr 8 min 12 sec) 
Heartbeat CPU 0 instructions: 90000002 cycles: 178925138 heartbeat IPC: 0.242144 cumulative IPC: 0.462559 (Simulation time: 1 hr 8 min 45 sec) 
Heartbeat CPU 0 instructions: 91000000 cycles: 180618926 heartbeat IPC: 0.590391 cumulative IPC: 0.463798 (Simulation time: 1 hr 9 min 14 sec) 
Heartbeat CPU 0 instructions: 92000000 cycles: 182382725 heartbeat IPC: 0.566958 cumulative IPC: 0.46483 (Simulation time: 1 hr 9 min 43 sec) 
Heartbeat CPU 0 instructions: 93000001 cycles: 184154200 heartbeat IPC: 0.564502 cumulative IPC: 0.465821 (Simulation time: 1 hr 10 min 12 sec) 
Heartbeat CPU 0 instructions: 94000003 cycles: 185928848 heartbeat IPC: 0.563493 cumulative IPC: 0.466784 (Simulation time: 1 hr 10 min 38 sec) 
Heartbeat CPU 0 instructions: 95000001 cycles: 187650459 heartbeat IPC: 0.58085 cumulative IPC: 0.467865 (Simulation time: 1 hr 11 min 5 sec) 
Heartbeat CPU 0 instructions: 96000000 cycles: 189370771 heartbeat IPC: 0.581289 cumulative IPC: 0.468929 (Simulation time: 1 hr 11 min 32 sec) 
Heartbeat CPU 0 instructions: 97000002 cycles: 191139435 heartbeat IPC: 0.5654 cumulative IPC: 0.46985 (Simulation time: 1 hr 11 min 57 sec) 
Heartbeat CPU 0 instructions: 98000000 cycles: 192912559 heartbeat IPC: 0.563975 cumulative IPC: 0.470743 (Simulation time: 1 hr 12 min 22 sec) 
Heartbeat CPU 0 instructions: 99000002 cycles: 194681202 heartbeat IPC: 0.565406 cumulative IPC: 0.47163 (Simulation time: 1 hr 12 min 44 sec) 
Heartbeat CPU 0 instructions: 100000000 cycles: 196372637 heartbeat IPC: 0.591213 cumulative IPC: 0.472693 (Simulation time: 1 hr 13 min 5 sec) 
Heartbeat CPU 0 instructions: 101000002 cycles: 198128108 heartbeat IPC: 0.569649 cumulative IPC: 0.473578 (Simulation time: 1 hr 13 min 25 sec) 
Heartbeat CPU 0 instructions: 102000000 cycles: 201476908 heartbeat IPC: 0.298614 cumulative IPC: 0.470582 (Simulation time: 1 hr 13 min 45 sec) 
Heartbeat CPU 0 instructions: 103000002 cycles: 206601007 heartbeat IPC: 0.195157 cumulative IPC: 0.463547 (Simulation time: 1 hr 14 min 5 sec) 
Heartbeat CPU 0 instructions: 104000000 cycles: 208326685 heartbeat IPC: 0.579481 cumulative IPC: 0.464536 (Simulation time: 1 hr 14 min 20 sec) 
Heartbeat CPU 0 instructions: 105000002 cycles: 210042069 heartbeat IPC: 0.582961 cumulative IPC: 0.465531 (Simulation time: 1 hr 14 min 36 sec) 
Heartbeat CPU 0 instructions: 106000001 cycles: 211814984 heartbeat IPC: 0.564042 cumulative IPC: 0.46638 (Simulation time: 1 hr 14 min 50 sec) 
Heartbeat CPU 0 instructions: 107000003 cycles: 213585665 heartbeat IPC: 0.564756 cumulative IPC: 0.467219 (Simulation time: 1 hr 15 min 4 sec) 
Heartbeat CPU 0 instructions: 108000000 cycles: 215354567 heartbeat IPC: 0.565321 cumulative IPC: 0.468047 (Simulation time: 1 hr 15 min 17 sec) 
Heartbeat CPU 0 instructions: 109000003 cycles: 217052217 heartbeat IPC: 0.589051 cumulative IPC: 0.469021 (Simulation time: 1 hr 15 min 29 sec) 
Heartbeat CPU 0 instructions: 110000002 cycles: 218802045 heartbeat IPC: 0.571484 cumulative IPC: 0.469863 (Simulation time: 1 hr 15 min 40 sec) 
Finished CPU 0 instructions: 100000003 cycles: 212827933 cummulative IPC: 0.469863 (Simulation time: 1 hr 15 min 40 sec) 

ChampSim completed all CPUs

Region of Interest Statistics

CPU 0 cummulative IPC: 0.469863 instructions: 100000003 cycles: 212827933
LLC TOTAL     ACCESS:    1168912  HIT:     336200  MISS:     832712
LLC LOAD      ACCESS:      25434  HIT:       2619  MISS:      22815
LLC RFO       ACCESS:     265309  HIT:      76022  MISS:     189287
LLC PREFETCH  ACCESS:     610823  HIT:     140906  MISS:     469917
LLC WRITEBACK ACCESS:     267346  HIT:     116653  MISS:     150693
Insertion Distribution: 
	LOAD 0 0 12657 11319 
	RFO 13710 0 20616 166233 
	PREF 0 47793 77832 393258 
	WRITEBACK 0 0 0 152706 
Total Prefetch Downgrades: 50845
