
*** ChampSim Multicore Out-of-Order Simulator ***

Warmup Instructions: 10000000
Simulation Instructions: 100000000
Configuration: 2
Number of CPUs: 1
LLC sets: 2048
LLC ways: 16
Off-chip DRAM Channels: 1 Width: 64-bit Data Rate: 1600 MT/s

CPU 0 runs /datasets/cs240c-wi22-a00-public/data/Assignment2-gz/sphinx3_883B.trace.gz
CPU 0 L1D next line prefetcher
CPU 0 L2C IP-based stride prefetcher
Initialize SRRIP state
Heartbeat CPU 0 instructions: 1000003 cycles: 414388 heartbeat IPC: 2.4132 cumulative IPC: 2.4132 (Simulation time: 0 hr 0 min 45 sec) 
Heartbeat CPU 0 instructions: 2000000 cycles: 823942 heartbeat IPC: 2.44167 cumulative IPC: 2.42736 (Simulation time: 0 hr 1 min 24 sec) 
Heartbeat CPU 0 instructions: 3000003 cycles: 1298777 heartbeat IPC: 2.106 cumulative IPC: 2.30987 (Simulation time: 0 hr 1 min 59 sec) 
Heartbeat CPU 0 instructions: 4000000 cycles: 1637668 heartbeat IPC: 2.95079 cumulative IPC: 2.4425 (Simulation time: 0 hr 2 min 30 sec) 
Heartbeat CPU 0 instructions: 5000000 cycles: 1992320 heartbeat IPC: 2.81967 cumulative IPC: 2.50964 (Simulation time: 0 hr 3 min 1 sec) 
Heartbeat CPU 0 instructions: 6000003 cycles: 2406734 heartbeat IPC: 2.41305 cumulative IPC: 2.49301 (Simulation time: 0 hr 3 min 37 sec) 
Heartbeat CPU 0 instructions: 7000002 cycles: 2815521 heartbeat IPC: 2.44626 cumulative IPC: 2.48622 (Simulation time: 0 hr 4 min 16 sec) 
Heartbeat CPU 0 instructions: 8000000 cycles: 3291702 heartbeat IPC: 2.10004 cumulative IPC: 2.43035 (Simulation time: 0 hr 4 min 51 sec) 
Heartbeat CPU 0 instructions: 9000001 cycles: 3630699 heartbeat IPC: 2.94988 cumulative IPC: 2.47886 (Simulation time: 0 hr 5 min 25 sec) 
Heartbeat CPU 0 instructions: 10000000 cycles: 3984787 heartbeat IPC: 2.82415 cumulative IPC: 2.50954 (Simulation time: 0 hr 5 min 57 sec) 

Warmup complete CPU 0 instructions: 10000004 cycles: 3984788 (Simulation time: 0 hr 5 min 57 sec) 

Heartbeat CPU 0 instructions: 11000002 cycles: 5677144 heartbeat IPC: 0.590893 cumulative IPC: 0.590891 (Simulation time: 0 hr 6 min 38 sec) 
Heartbeat CPU 0 instructions: 12000000 cycles: 7275278 heartbeat IPC: 0.625728 cumulative IPC: 0.607811 (Simulation time: 0 hr 7 min 20 sec) 
Heartbeat CPU 0 instructions: 13000001 cycles: 8471413 heartbeat IPC: 0.836027 cumulative IPC: 0.668653 (Simulation time: 0 hr 8 min 0 sec) 
Heartbeat CPU 0 instructions: 14000002 cycles: 9207519 heartbeat IPC: 1.3585 cumulative IPC: 0.765882 (Simulation time: 0 hr 8 min 43 sec) 
Heartbeat CPU 0 instructions: 15000000 cycles: 10050372 heartbeat IPC: 1.18644 cumulative IPC: 0.824322 (Simulation time: 0 hr 9 min 27 sec) 
Heartbeat CPU 0 instructions: 16000000 cycles: 11710792 heartbeat IPC: 0.602257 cumulative IPC: 0.776598 (Simulation time: 0 hr 10 min 19 sec) 
Heartbeat CPU 0 instructions: 17000000 cycles: 13271885 heartbeat IPC: 0.640577 cumulative IPC: 0.753734 (Simulation time: 0 hr 11 min 9 sec) 
Heartbeat CPU 0 instructions: 18000002 cycles: 14555272 heartbeat IPC: 0.77919 cumulative IPC: 0.756824 (Simulation time: 0 hr 11 min 58 sec) 
Heartbeat CPU 0 instructions: 19000003 cycles: 15378974 heartbeat IPC: 1.21403 cumulative IPC: 0.789876 (Simulation time: 0 hr 12 min 45 sec) 
Heartbeat CPU 0 instructions: 20000000 cycles: 16116170 heartbeat IPC: 1.35649 cumulative IPC: 0.824308 (Simulation time: 0 hr 13 min 27 sec) 
Heartbeat CPU 0 instructions: 21000000 cycles: 17730222 heartbeat IPC: 0.619559 cumulative IPC: 0.800265 (Simulation time: 0 hr 14 min 20 sec) 
Heartbeat CPU 0 instructions: 22000002 cycles: 19346183 heartbeat IPC: 0.618828 cumulative IPC: 0.781179 (Simulation time: 0 hr 15 min 10 sec) 
Heartbeat CPU 0 instructions: 23000001 cycles: 20850116 heartbeat IPC: 0.664923 cumulative IPC: 0.770812 (Simulation time: 0 hr 16 min 5 sec) 
Heartbeat CPU 0 instructions: 24000000 cycles: 21766765 heartbeat IPC: 1.09093 cumulative IPC: 0.787314 (Simulation time: 0 hr 16 min 54 sec) 
Heartbeat CPU 0 instructions: 25000001 cycles: 22568144 heartbeat IPC: 1.24785 cumulative IPC: 0.807174 (Simulation time: 0 hr 17 min 45 sec) 
Heartbeat CPU 0 instructions: 26000001 cycles: 23822607 heartbeat IPC: 0.797154 cumulative IPC: 0.80654 (Simulation time: 0 hr 18 min 37 sec) 
Heartbeat CPU 0 instructions: 27000000 cycles: 25439542 heartbeat IPC: 0.618453 cumulative IPC: 0.792365 (Simulation time: 0 hr 19 min 30 sec) 
Heartbeat CPU 0 instructions: 28000000 cycles: 26995260 heartbeat IPC: 0.64279 cumulative IPC: 0.782252 (Simulation time: 0 hr 20 min 20 sec) 
Heartbeat CPU 0 instructions: 29000000 cycles: 28008416 heartbeat IPC: 0.987015 cumulative IPC: 0.790888 (Simulation time: 0 hr 21 min 6 sec) 
Heartbeat CPU 0 instructions: 30000002 cycles: 28829935 heartbeat IPC: 1.21726 cumulative IPC: 0.804986 (Simulation time: 0 hr 21 min 56 sec) 
Heartbeat CPU 0 instructions: 31000003 cycles: 29934432 heartbeat IPC: 0.90539 cumulative IPC: 0.80926 (Simulation time: 0 hr 22 min 46 sec) 
Heartbeat CPU 0 instructions: 32000000 cycles: 31547877 heartbeat IPC: 0.61979 cumulative IPC: 0.798169 (Simulation time: 0 hr 23 min 40 sec) 
Heartbeat CPU 0 instructions: 33000000 cycles: 33063125 heartbeat IPC: 0.659958 cumulative IPC: 0.790967 (Simulation time: 0 hr 24 min 33 sec) 
Heartbeat CPU 0 instructions: 34000000 cycles: 34170409 heartbeat IPC: 0.903111 cumulative IPC: 0.79508 (Simulation time: 0 hr 25 min 20 sec) 
Heartbeat CPU 0 instructions: 35000003 cycles: 35004784 heartbeat IPC: 1.19851 cumulative IPC: 0.805932 (Simulation time: 0 hr 26 min 7 sec) 
Heartbeat CPU 0 instructions: 36000000 cycles: 36056406 heartbeat IPC: 0.950909 cumulative IPC: 0.810686 (Simulation time: 0 hr 26 min 56 sec) 
Heartbeat CPU 0 instructions: 37000001 cycles: 37684516 heartbeat IPC: 0.61421 cumulative IPC: 0.801193 (Simulation time: 0 hr 27 min 53 sec) 
Heartbeat CPU 0 instructions: 38000000 cycles: 39204853 heartbeat IPC: 0.657748 cumulative IPC: 0.795001 (Simulation time: 0 hr 28 min 47 sec) 
Heartbeat CPU 0 instructions: 39000003 cycles: 40315432 heartbeat IPC: 0.900434 cumulative IPC: 0.798224 (Simulation time: 0 hr 29 min 34 sec) 
Heartbeat CPU 0 instructions: 40000000 cycles: 41147858 heartbeat IPC: 1.2013 cumulative IPC: 0.807253 (Simulation time: 0 hr 30 min 21 sec) 
Heartbeat CPU 0 instructions: 41000003 cycles: 42198558 heartbeat IPC: 0.951749 cumulative IPC: 0.811226 (Simulation time: 0 hr 31 min 8 sec) 
Heartbeat CPU 0 instructions: 42000000 cycles: 43833085 heartbeat IPC: 0.611796 cumulative IPC: 0.803046 (Simulation time: 0 hr 32 min 5 sec) 
Heartbeat CPU 0 instructions: 43000003 cycles: 45380110 heartbeat IPC: 0.646404 cumulative IPC: 0.797192 (Simulation time: 0 hr 32 min 56 sec) 
Heartbeat CPU 0 instructions: 44000000 cycles: 46423231 heartbeat IPC: 0.958659 cumulative IPC: 0.80116 (Simulation time: 0 hr 33 min 43 sec) 
Heartbeat CPU 0 instructions: 45000002 cycles: 47277103 heartbeat IPC: 1.17114 cumulative IPC: 0.808458 (Simulation time: 0 hr 34 min 31 sec) 
Heartbeat CPU 0 instructions: 46000001 cycles: 48378389 heartbeat IPC: 0.908028 cumulative IPC: 0.810928 (Simulation time: 0 hr 35 min 21 sec) 
Heartbeat CPU 0 instructions: 47000002 cycles: 49974953 heartbeat IPC: 0.626346 cumulative IPC: 0.80452 (Simulation time: 0 hr 36 min 14 sec) 
Heartbeat CPU 0 instructions: 48000000 cycles: 51518172 heartbeat IPC: 0.647995 cumulative IPC: 0.799438 (Simulation time: 0 hr 37 min 3 sec) 
Heartbeat CPU 0 instructions: 49000001 cycles: 52465791 heartbeat IPC: 1.05528 cumulative IPC: 0.804439 (Simulation time: 0 hr 37 min 46 sec) 
Heartbeat CPU 0 instructions: 50000000 cycles: 53291867 heartbeat IPC: 1.21054 cumulative IPC: 0.811242 (Simulation time: 0 hr 38 min 34 sec) 
Heartbeat CPU 0 instructions: 51000003 cycles: 54435829 heartbeat IPC: 0.874158 cumulative IPC: 0.812669 (Simulation time: 0 hr 39 min 29 sec) 
Heartbeat CPU 0 instructions: 52000000 cycles: 56066809 heartbeat IPC: 0.613126 cumulative IPC: 0.80642 (Simulation time: 0 hr 40 min 27 sec) 
Heartbeat CPU 0 instructions: 53000000 cycles: 57827240 heartbeat IPC: 0.568043 cumulative IPC: 0.798626 (Simulation time: 0 hr 41 min 23 sec) 
Heartbeat CPU 0 instructions: 54000003 cycles: 59109136 heartbeat IPC: 0.780097 cumulative IPC: 0.798195 (Simulation time: 0 hr 42 min 18 sec) 
Heartbeat CPU 0 instructions: 55000003 cycles: 60004578 heartbeat IPC: 1.11677 cumulative IPC: 0.803288 (Simulation time: 0 hr 43 min 6 sec) 
Heartbeat CPU 0 instructions: 56000000 cycles: 60882564 heartbeat IPC: 1.13897 cumulative IPC: 0.808467 (Simulation time: 0 hr 43 min 57 sec) 
Heartbeat CPU 0 instructions: 57000002 cycles: 62057945 heartbeat IPC: 0.85079 cumulative IPC: 0.809324 (Simulation time: 0 hr 44 min 50 sec) 
Heartbeat CPU 0 instructions: 58000001 cycles: 63089788 heartbeat IPC: 0.969139 cumulative IPC: 0.812114 (Simulation time: 0 hr 45 min 41 sec) 
Heartbeat CPU 0 instructions: 59000003 cycles: 63962329 heartbeat IPC: 1.14608 cumulative IPC: 0.816972 (Simulation time: 0 hr 46 min 31 sec) 
Heartbeat CPU 0 instructions: 60000000 cycles: 64860260 heartbeat IPC: 1.11367 cumulative IPC: 0.821349 (Simulation time: 0 hr 47 min 21 sec) 
Heartbeat CPU 0 instructions: 61000001 cycles: 66052088 heartbeat IPC: 0.839048 cumulative IPC: 0.821689 (Simulation time: 0 hr 48 min 12 sec) 
Heartbeat CPU 0 instructions: 62000001 cycles: 66919633 heartbeat IPC: 1.15268 cumulative IPC: 0.826251 (Simulation time: 0 hr 49 min 3 sec) 
Heartbeat CPU 0 instructions: 63000003 cycles: 67770254 heartbeat IPC: 1.17561 cumulative IPC: 0.83091 (Simulation time: 0 hr 49 min 57 sec) 
Heartbeat CPU 0 instructions: 64000000 cycles: 69028027 heartbeat IPC: 0.795054 cumulative IPC: 0.830217 (Simulation time: 0 hr 50 min 52 sec) 
Heartbeat CPU 0 instructions: 65000003 cycles: 69905242 heartbeat IPC: 1.13997 cumulative IPC: 0.834339 (Simulation time: 0 hr 51 min 40 sec) 
Heartbeat CPU 0 instructions: 66000002 cycles: 70763841 heartbeat IPC: 1.16469 cumulative IPC: 0.838586 (Simulation time: 0 hr 52 min 32 sec) 
Heartbeat CPU 0 instructions: 67000000 cycles: 72011068 heartbeat IPC: 0.801777 cumulative IPC: 0.837911 (Simulation time: 0 hr 53 min 26 sec) 
Heartbeat CPU 0 instructions: 68000000 cycles: 73636216 heartbeat IPC: 0.615329 cumulative IPC: 0.832718 (Simulation time: 0 hr 54 min 25 sec) 
Heartbeat CPU 0 instructions: 69000003 cycles: 74509532 heartbeat IPC: 1.14506 cumulative IPC: 0.836586 (Simulation time: 0 hr 55 min 12 sec) 
Heartbeat CPU 0 instructions: 70000000 cycles: 75374030 heartbeat IPC: 1.15674 cumulative IPC: 0.840463 (Simulation time: 0 hr 56 min 5 sec) 
Heartbeat CPU 0 instructions: 71000000 cycles: 76540144 heartbeat IPC: 0.857549 cumulative IPC: 0.840737 (Simulation time: 0 hr 56 min 58 sec) 
Heartbeat CPU 0 instructions: 72000000 cycles: 78016623 heartbeat IPC: 0.677287 cumulative IPC: 0.837478 (Simulation time: 0 hr 57 min 50 sec) 
Heartbeat CPU 0 instructions: 73000000 cycles: 78884006 heartbeat IPC: 1.15289 cumulative IPC: 0.84113 (Simulation time: 0 hr 58 min 39 sec) 
Heartbeat CPU 0 instructions: 74000000 cycles: 79749017 heartbeat IPC: 1.15605 cumulative IPC: 0.844726 (Simulation time: 0 hr 59 min 27 sec) 
Heartbeat CPU 0 instructions: 75000000 cycles: 80963723 heartbeat IPC: 0.823244 cumulative IPC: 0.844387 (Simulation time: 1 hr 0 min 17 sec) 
Heartbeat CPU 0 instructions: 76000000 cycles: 82268308 heartbeat IPC: 0.766527 cumulative IPC: 0.843089 (Simulation time: 1 hr 1 min 4 sec) 
Heartbeat CPU 0 instructions: 77000000 cycles: 83151305 heartbeat IPC: 1.13251 cumulative IPC: 0.846317 (Simulation time: 1 hr 1 min 53 sec) 
Heartbeat CPU 0 instructions: 78000000 cycles: 84014654 heartbeat IPC: 1.15828 cumulative IPC: 0.849683 (Simulation time: 1 hr 2 min 30 sec) 
Heartbeat CPU 0 instructions: 79000001 cycles: 85376012 heartbeat IPC: 0.734561 cumulative IPC: 0.847757 (Simulation time: 1 hr 3 min 14 sec) 
Heartbeat CPU 0 instructions: 80000000 cycles: 86540564 heartbeat IPC: 0.858698 cumulative IPC: 0.847912 (Simulation time: 1 hr 3 min 54 sec) 
Heartbeat CPU 0 instructions: 81000000 cycles: 87433674 heartbeat IPC: 1.11968 cumulative IPC: 0.85082 (Simulation time: 1 hr 4 min 33 sec) 
Heartbeat CPU 0 instructions: 82000000 cycles: 88281975 heartbeat IPC: 1.17883 cumulative IPC: 0.854121 (Simulation time: 1 hr 5 min 12 sec) 
Heartbeat CPU 0 instructions: 83000000 cycles: 89766211 heartbeat IPC: 0.673747 cumulative IPC: 0.851 (Simulation time: 1 hr 5 min 51 sec) 
Heartbeat CPU 0 instructions: 84000000 cycles: 90686790 heartbeat IPC: 1.08627 cumulative IPC: 0.853498 (Simulation time: 1 hr 6 min 25 sec) 
Heartbeat CPU 0 instructions: 85000001 cycles: 91544061 heartbeat IPC: 1.16649 cumulative IPC: 0.856563 (Simulation time: 1 hr 7 min 0 sec) 
Heartbeat CPU 0 instructions: 86000001 cycles: 92610096 heartbeat IPC: 0.938056 cumulative IPC: 0.857543 (Simulation time: 1 hr 7 min 35 sec) 
Heartbeat CPU 0 instructions: 87000000 cycles: 93820431 heartbeat IPC: 0.826217 cumulative IPC: 0.857121 (Simulation time: 1 hr 8 min 10 sec) 
Heartbeat CPU 0 instructions: 88000000 cycles: 94706119 heartbeat IPC: 1.12907 cumulative IPC: 0.859776 (Simulation time: 1 hr 8 min 44 sec) 
Heartbeat CPU 0 instructions: 89000000 cycles: 95548213 heartbeat IPC: 1.18752 cumulative IPC: 0.86279 (Simulation time: 1 hr 9 min 15 sec) 
Heartbeat CPU 0 instructions: 90000000 cycles: 96909628 heartbeat IPC: 0.73453 cumulative IPC: 0.860911 (Simulation time: 1 hr 9 min 45 sec) 
Heartbeat CPU 0 instructions: 91000003 cycles: 98157287 heartbeat IPC: 0.801503 cumulative IPC: 0.860124 (Simulation time: 1 hr 10 min 12 sec) 
Heartbeat CPU 0 instructions: 92000000 cycles: 99106743 heartbeat IPC: 1.05323 cumulative IPC: 0.862051 (Simulation time: 1 hr 10 min 38 sec) 
Heartbeat CPU 0 instructions: 93000000 cycles: 99977829 heartbeat IPC: 1.14799 cumulative IPC: 0.864646 (Simulation time: 1 hr 11 min 8 sec) 
Heartbeat CPU 0 instructions: 94000002 cycles: 100825957 heartbeat IPC: 1.17907 cumulative IPC: 0.8674 (Simulation time: 1 hr 11 min 35 sec) 
Heartbeat CPU 0 instructions: 95000001 cycles: 102252213 heartbeat IPC: 0.701136 cumulative IPC: 0.864987 (Simulation time: 1 hr 12 min 1 sec) 
Heartbeat CPU 0 instructions: 96000000 cycles: 103124994 heartbeat IPC: 1.14576 cumulative IPC: 0.867458 (Simulation time: 1 hr 12 min 26 sec) 
Heartbeat CPU 0 instructions: 97000000 cycles: 103982806 heartbeat IPC: 1.16576 cumulative IPC: 0.870017 (Simulation time: 1 hr 12 min 49 sec) 
Heartbeat CPU 0 instructions: 98000003 cycles: 105212667 heartbeat IPC: 0.813102 cumulative IPC: 0.869326 (Simulation time: 1 hr 13 min 9 sec) 
Heartbeat CPU 0 instructions: 99000000 cycles: 106291110 heartbeat IPC: 0.92726 cumulative IPC: 0.869936 (Simulation time: 1 hr 13 min 26 sec) 
Heartbeat CPU 0 instructions: 100000000 cycles: 107158880 heartbeat IPC: 1.15238 cumulative IPC: 0.872312 (Simulation time: 1 hr 13 min 43 sec) 
Heartbeat CPU 0 instructions: 101000000 cycles: 108010565 heartbeat IPC: 1.17414 cumulative IPC: 0.874783 (Simulation time: 1 hr 13 min 59 sec) 
Heartbeat CPU 0 instructions: 102000003 cycles: 109541447 heartbeat IPC: 0.65322 cumulative IPC: 0.87157 (Simulation time: 1 hr 14 min 15 sec) 
Heartbeat CPU 0 instructions: 103000001 cycles: 110488455 heartbeat IPC: 1.05596 cumulative IPC: 0.873209 (Simulation time: 1 hr 14 min 28 sec) 
Heartbeat CPU 0 instructions: 104000000 cycles: 111341828 heartbeat IPC: 1.17182 cumulative IPC: 0.875583 (Simulation time: 1 hr 14 min 42 sec) 
Heartbeat CPU 0 instructions: 105000002 cycles: 112456048 heartbeat IPC: 0.897491 cumulative IPC: 0.875808 (Simulation time: 1 hr 14 min 55 sec) 
Heartbeat CPU 0 instructions: 106000003 cycles: 113959337 heartbeat IPC: 0.665209 cumulative IPC: 0.872929 (Simulation time: 1 hr 15 min 7 sec) 
Heartbeat CPU 0 instructions: 107000001 cycles: 114831220 heartbeat IPC: 1.14694 cumulative IPC: 0.875085 (Simulation time: 1 hr 15 min 18 sec) 
Heartbeat CPU 0 instructions: 108000000 cycles: 115691138 heartbeat IPC: 1.1629 cumulative IPC: 0.8773 (Simulation time: 1 hr 15 min 29 sec) 
Heartbeat CPU 0 instructions: 109000001 cycles: 116874837 heartbeat IPC: 0.84481 cumulative IPC: 0.876959 (Simulation time: 1 hr 15 min 38 sec) 
Heartbeat CPU 0 instructions: 110000000 cycles: 118278968 heartbeat IPC: 0.712184 cumulative IPC: 0.874935 (Simulation time: 1 hr 15 min 46 sec) 
Finished CPU 0 instructions: 100000000 cycles: 114294181 cummulative IPC: 0.874935 (Simulation time: 1 hr 15 min 46 sec) 

ChampSim completed all CPUs

Region of Interest Statistics

CPU 0 cummulative IPC: 0.874935 instructions: 100000000 cycles: 114294181
LLC TOTAL     ACCESS:    1795825  HIT:     700663  MISS:    1095162
LLC LOAD      ACCESS:     315641  HIT:     215821  MISS:      99820
LLC RFO       ACCESS:      99593  HIT:      77201  MISS:      22392
LLC PREFETCH  ACCESS:    1239171  HIT:     280033  MISS:     959138
LLC WRITEBACK ACCESS:     141420  HIT:     127608  MISS:      13812
Insertion Distribution: 
	LOAD 8569 0 25846 89831 
	RFO 5441 0 7568 13280 
	PREF 0 3681 82119 982351 
	WRITEBACK 0 0 0 15000 
Total Prefetch Downgrades: 6157
