
*** ChampSim Multicore Out-of-Order Simulator ***

Warmup Instructions: 10000000
Simulation Instructions: 100000000
Configuration: 2
Number of CPUs: 1
LLC sets: 2048
LLC ways: 16
Off-chip DRAM Channels: 1 Width: 64-bit Data Rate: 1600 MT/s

CPU 0 runs /datasets/cs240c-wi22-a00-public/data/Assignment2-gz/cactusADM_734B.trace.gz
CPU 0 L1D next line prefetcher
CPU 0 L2C IP-based stride prefetcher
Initialize SRRIP state
Heartbeat CPU 0 instructions: 1000003 cycles: 592726 heartbeat IPC: 1.68713 cumulative IPC: 1.68713 (Simulation time: 0 hr 0 min 44 sec) 
Heartbeat CPU 0 instructions: 2000001 cycles: 1185927 heartbeat IPC: 1.68577 cumulative IPC: 1.68645 (Simulation time: 0 hr 1 min 27 sec) 
Heartbeat CPU 0 instructions: 3000003 cycles: 1778979 heartbeat IPC: 1.6862 cumulative IPC: 1.68636 (Simulation time: 0 hr 2 min 7 sec) 
Heartbeat CPU 0 instructions: 4000000 cycles: 2371929 heartbeat IPC: 1.68648 cumulative IPC: 1.68639 (Simulation time: 0 hr 2 min 50 sec) 
Heartbeat CPU 0 instructions: 5000000 cycles: 2965279 heartbeat IPC: 1.68535 cumulative IPC: 1.68618 (Simulation time: 0 hr 3 min 32 sec) 
Heartbeat CPU 0 instructions: 6000002 cycles: 3558551 heartbeat IPC: 1.68557 cumulative IPC: 1.68608 (Simulation time: 0 hr 4 min 15 sec) 
Heartbeat CPU 0 instructions: 7000000 cycles: 4151394 heartbeat IPC: 1.68678 cumulative IPC: 1.68618 (Simulation time: 0 hr 4 min 57 sec) 
Heartbeat CPU 0 instructions: 8000000 cycles: 4744343 heartbeat IPC: 1.68649 cumulative IPC: 1.68622 (Simulation time: 0 hr 5 min 38 sec) 
Heartbeat CPU 0 instructions: 9000001 cycles: 5337493 heartbeat IPC: 1.68592 cumulative IPC: 1.68619 (Simulation time: 0 hr 6 min 21 sec) 
Heartbeat CPU 0 instructions: 10000003 cycles: 5958967 heartbeat IPC: 1.60908 cumulative IPC: 1.67814 (Simulation time: 0 hr 7 min 4 sec) 

Warmup complete CPU 0 instructions: 10000003 cycles: 5958967 (Simulation time: 0 hr 7 min 4 sec) 

Heartbeat CPU 0 instructions: 11000002 cycles: 12570569 heartbeat IPC: 0.151249 cumulative IPC: 0.151249 (Simulation time: 0 hr 7 min 58 sec) 
Heartbeat CPU 0 instructions: 12000000 cycles: 14313515 heartbeat IPC: 0.57374 cumulative IPC: 0.23939 (Simulation time: 0 hr 8 min 43 sec) 
Heartbeat CPU 0 instructions: 13000002 cycles: 16002174 heartbeat IPC: 0.592187 cumulative IPC: 0.298709 (Simulation time: 0 hr 9 min 30 sec) 
Heartbeat CPU 0 instructions: 14000000 cycles: 17688683 heartbeat IPC: 0.59294 cumulative IPC: 0.341014 (Simulation time: 0 hr 10 min 17 sec) 
Heartbeat CPU 0 instructions: 15000003 cycles: 19428364 heartbeat IPC: 0.57482 cumulative IPC: 0.371212 (Simulation time: 0 hr 11 min 1 sec) 
Heartbeat CPU 0 instructions: 16000000 cycles: 21170879 heartbeat IPC: 0.573881 cumulative IPC: 0.394428 (Simulation time: 0 hr 11 min 46 sec) 
Heartbeat CPU 0 instructions: 17000002 cycles: 22904850 heartbeat IPC: 0.576712 cumulative IPC: 0.41308 (Simulation time: 0 hr 12 min 32 sec) 
Heartbeat CPU 0 instructions: 18000001 cycles: 24562901 heartbeat IPC: 0.603117 cumulative IPC: 0.430016 (Simulation time: 0 hr 13 min 18 sec) 
Heartbeat CPU 0 instructions: 19000000 cycles: 26280568 heartbeat IPC: 0.582184 cumulative IPC: 0.442878 (Simulation time: 0 hr 14 min 3 sec) 
Heartbeat CPU 0 instructions: 20000000 cycles: 28023620 heartbeat IPC: 0.573706 cumulative IPC: 0.453213 (Simulation time: 0 hr 14 min 51 sec) 
Heartbeat CPU 0 instructions: 21000002 cycles: 29766999 heartbeat IPC: 0.5736 cumulative IPC: 0.462029 (Simulation time: 0 hr 15 min 37 sec) 
Heartbeat CPU 0 instructions: 22000000 cycles: 31476660 heartbeat IPC: 0.58491 cumulative IPC: 0.470262 (Simulation time: 0 hr 16 min 23 sec) 
Heartbeat CPU 0 instructions: 23000001 cycles: 33140844 heartbeat IPC: 0.600896 cumulative IPC: 0.47826 (Simulation time: 0 hr 17 min 8 sec) 
Heartbeat CPU 0 instructions: 24000000 cycles: 40710737 heartbeat IPC: 0.132102 cumulative IPC: 0.402857 (Simulation time: 0 hr 18 min 1 sec) 
Heartbeat CPU 0 instructions: 25000000 cycles: 42449881 heartbeat IPC: 0.574996 cumulative IPC: 0.411061 (Simulation time: 0 hr 18 min 48 sec) 
Heartbeat CPU 0 instructions: 26000002 cycles: 44182096 heartbeat IPC: 0.577297 cumulative IPC: 0.418595 (Simulation time: 0 hr 19 min 34 sec) 
Heartbeat CPU 0 instructions: 27000002 cycles: 45841991 heartbeat IPC: 0.602448 cumulative IPC: 0.426246 (Simulation time: 0 hr 20 min 20 sec) 
Heartbeat CPU 0 instructions: 28000000 cycles: 47564854 heartbeat IPC: 0.580428 cumulative IPC: 0.432631 (Simulation time: 0 hr 21 min 5 sec) 
Heartbeat CPU 0 instructions: 29000001 cycles: 49321000 heartbeat IPC: 0.569429 cumulative IPC: 0.438171 (Simulation time: 0 hr 21 min 50 sec) 
Heartbeat CPU 0 instructions: 30000001 cycles: 51059820 heartbeat IPC: 0.575103 cumulative IPC: 0.443451 (Simulation time: 0 hr 22 min 38 sec) 
Heartbeat CPU 0 instructions: 31000003 cycles: 52770380 heartbeat IPC: 0.584605 cumulative IPC: 0.448609 (Simulation time: 0 hr 23 min 23 sec) 
Heartbeat CPU 0 instructions: 32000000 cycles: 54426821 heartbeat IPC: 0.603702 cumulative IPC: 0.453909 (Simulation time: 0 hr 24 min 8 sec) 
Heartbeat CPU 0 instructions: 33000000 cycles: 56160144 heartbeat IPC: 0.576927 cumulative IPC: 0.458157 (Simulation time: 0 hr 24 min 54 sec) 
Heartbeat CPU 0 instructions: 34000001 cycles: 57901171 heartbeat IPC: 0.574374 cumulative IPC: 0.462052 (Simulation time: 0 hr 25 min 40 sec) 
Heartbeat CPU 0 instructions: 35000000 cycles: 59637730 heartbeat IPC: 0.575851 cumulative IPC: 0.465733 (Simulation time: 0 hr 26 min 24 sec) 
Heartbeat CPU 0 instructions: 36000000 cycles: 61319339 heartbeat IPC: 0.594669 cumulative IPC: 0.46965 (Simulation time: 0 hr 27 min 10 sec) 
Heartbeat CPU 0 instructions: 37000003 cycles: 68841551 heartbeat IPC: 0.13294 cumulative IPC: 0.429372 (Simulation time: 0 hr 28 min 4 sec) 
Heartbeat CPU 0 instructions: 38000001 cycles: 70578255 heartbeat IPC: 0.575802 cumulative IPC: 0.433307 (Simulation time: 0 hr 28 min 49 sec) 
Heartbeat CPU 0 instructions: 39000001 cycles: 72315514 heartbeat IPC: 0.575619 cumulative IPC: 0.437033 (Simulation time: 0 hr 29 min 38 sec) 
Heartbeat CPU 0 instructions: 40000000 cycles: 74030812 heartbeat IPC: 0.582989 cumulative IPC: 0.440711 (Simulation time: 0 hr 30 min 25 sec) 
Heartbeat CPU 0 instructions: 41000001 cycles: 75682993 heartbeat IPC: 0.605261 cumulative IPC: 0.44461 (Simulation time: 0 hr 31 min 13 sec) 
Heartbeat CPU 0 instructions: 42000002 cycles: 77415812 heartbeat IPC: 0.577095 cumulative IPC: 0.447823 (Simulation time: 0 hr 31 min 58 sec) 
Heartbeat CPU 0 instructions: 43000000 cycles: 79154375 heartbeat IPC: 0.575186 cumulative IPC: 0.450848 (Simulation time: 0 hr 32 min 44 sec) 
Heartbeat CPU 0 instructions: 44000000 cycles: 80892913 heartbeat IPC: 0.575196 cumulative IPC: 0.453733 (Simulation time: 0 hr 33 min 29 sec) 
Heartbeat CPU 0 instructions: 45000000 cycles: 82575387 heartbeat IPC: 0.594363 cumulative IPC: 0.456821 (Simulation time: 0 hr 34 min 15 sec) 
Heartbeat CPU 0 instructions: 46000003 cycles: 84255922 heartbeat IPC: 0.59505 cumulative IPC: 0.459788 (Simulation time: 0 hr 34 min 59 sec) 
Heartbeat CPU 0 instructions: 47000001 cycles: 85992009 heartbeat IPC: 0.576007 cumulative IPC: 0.462309 (Simulation time: 0 hr 35 min 44 sec) 
Heartbeat CPU 0 instructions: 48000000 cycles: 87732000 heartbeat IPC: 0.574715 cumulative IPC: 0.464701 (Simulation time: 0 hr 36 min 30 sec) 
Heartbeat CPU 0 instructions: 49000000 cycles: 89467232 heartbeat IPC: 0.576292 cumulative IPC: 0.46702 (Simulation time: 0 hr 37 min 16 sec) 
Heartbeat CPU 0 instructions: 50000001 cycles: 96908350 heartbeat IPC: 0.134389 cumulative IPC: 0.439805 (Simulation time: 0 hr 38 min 9 sec) 
Heartbeat CPU 0 instructions: 51000000 cycles: 98636544 heartbeat IPC: 0.578638 cumulative IPC: 0.442394 (Simulation time: 0 hr 38 min 56 sec) 
Heartbeat CPU 0 instructions: 52000000 cycles: 100373549 heartbeat IPC: 0.575704 cumulative IPC: 0.444847 (Simulation time: 0 hr 39 min 45 sec) 
Heartbeat CPU 0 instructions: 53000003 cycles: 102112429 heartbeat IPC: 0.575085 cumulative IPC: 0.447202 (Simulation time: 0 hr 40 min 32 sec) 
Heartbeat CPU 0 instructions: 54000000 cycles: 103799184 heartbeat IPC: 0.592853 cumulative IPC: 0.449713 (Simulation time: 0 hr 41 min 18 sec) 
Heartbeat CPU 0 instructions: 55000001 cycles: 105475152 heartbeat IPC: 0.596671 cumulative IPC: 0.452188 (Simulation time: 0 hr 42 min 2 sec) 
Heartbeat CPU 0 instructions: 56000000 cycles: 107226648 heartbeat IPC: 0.57094 cumulative IPC: 0.454242 (Simulation time: 0 hr 42 min 47 sec) 
Heartbeat CPU 0 instructions: 57000000 cycles: 108976110 heartbeat IPC: 0.571604 cumulative IPC: 0.456235 (Simulation time: 0 hr 43 min 32 sec) 
Heartbeat CPU 0 instructions: 58000001 cycles: 110709567 heartbeat IPC: 0.576882 cumulative IPC: 0.458231 (Simulation time: 0 hr 44 min 18 sec) 
Heartbeat CPU 0 instructions: 59000000 cycles: 112367616 heartbeat IPC: 0.603118 cumulative IPC: 0.460489 (Simulation time: 0 hr 45 min 5 sec) 
Heartbeat CPU 0 instructions: 60000000 cycles: 114073993 heartbeat IPC: 0.586037 cumulative IPC: 0.46247 (Simulation time: 0 hr 45 min 50 sec) 
Heartbeat CPU 0 instructions: 61000002 cycles: 115813901 heartbeat IPC: 0.574744 cumulative IPC: 0.464249 (Simulation time: 0 hr 46 min 36 sec) 
Heartbeat CPU 0 instructions: 62000002 cycles: 117553846 heartbeat IPC: 0.574731 cumulative IPC: 0.465971 (Simulation time: 0 hr 47 min 23 sec) 
Heartbeat CPU 0 instructions: 63000002 cycles: 124910029 heartbeat IPC: 0.13594 cumulative IPC: 0.445561 (Simulation time: 0 hr 48 min 18 sec) 
Heartbeat CPU 0 instructions: 64000000 cycles: 126858148 heartbeat IPC: 0.513315 cumulative IPC: 0.446653 (Simulation time: 0 hr 49 min 5 sec) 
Heartbeat CPU 0 instructions: 65000003 cycles: 128593896 heartbeat IPC: 0.576122 cumulative IPC: 0.448486 (Simulation time: 0 hr 49 min 50 sec) 
Heartbeat CPU 0 instructions: 66000001 cycles: 130333962 heartbeat IPC: 0.57469 cumulative IPC: 0.450251 (Simulation time: 0 hr 50 min 35 sec) 
Heartbeat CPU 0 instructions: 67000000 cycles: 132069557 heartbeat IPC: 0.576171 cumulative IPC: 0.451984 (Simulation time: 0 hr 51 min 19 sec) 
Heartbeat CPU 0 instructions: 68000000 cycles: 133731668 heartbeat IPC: 0.601645 cumulative IPC: 0.453931 (Simulation time: 0 hr 52 min 3 sec) 
Heartbeat CPU 0 instructions: 69000000 cycles: 135432391 heartbeat IPC: 0.587985 cumulative IPC: 0.455692 (Simulation time: 0 hr 52 min 49 sec) 
Heartbeat CPU 0 instructions: 70000001 cycles: 137172260 heartbeat IPC: 0.574757 cumulative IPC: 0.457271 (Simulation time: 0 hr 53 min 33 sec) 
Heartbeat CPU 0 instructions: 71000001 cycles: 138913461 heartbeat IPC: 0.574316 cumulative IPC: 0.458804 (Simulation time: 0 hr 54 min 17 sec) 
Heartbeat CPU 0 instructions: 72000000 cycles: 140634312 heartbeat IPC: 0.581107 cumulative IPC: 0.460366 (Simulation time: 0 hr 55 min 1 sec) 
Heartbeat CPU 0 instructions: 73000003 cycles: 142283766 heartbeat IPC: 0.606263 cumulative IPC: 0.462132 (Simulation time: 0 hr 55 min 46 sec) 
Heartbeat CPU 0 instructions: 74000002 cycles: 144016149 heartbeat IPC: 0.577239 cumulative IPC: 0.463576 (Simulation time: 0 hr 56 min 30 sec) 
Heartbeat CPU 0 instructions: 75000002 cycles: 145757554 heartbeat IPC: 0.574249 cumulative IPC: 0.464955 (Simulation time: 0 hr 57 min 13 sec) 
Heartbeat CPU 0 instructions: 76000000 cycles: 151926642 heartbeat IPC: 0.162098 cumulative IPC: 0.452155 (Simulation time: 0 hr 58 min 1 sec) 
Heartbeat CPU 0 instructions: 77000000 cycles: 155107712 heartbeat IPC: 0.31436 cumulative IPC: 0.449216 (Simulation time: 0 hr 58 min 45 sec) 
Heartbeat CPU 0 instructions: 78000002 cycles: 156802911 heartbeat IPC: 0.589902 cumulative IPC: 0.450797 (Simulation time: 0 hr 59 min 28 sec) 
Heartbeat CPU 0 instructions: 79000002 cycles: 158543537 heartbeat IPC: 0.574506 cumulative IPC: 0.452208 (Simulation time: 1 hr 0 min 10 sec) 
Heartbeat CPU 0 instructions: 80000000 cycles: 160280010 heartbeat IPC: 0.575879 cumulative IPC: 0.4536 (Simulation time: 1 hr 0 min 51 sec) 
Heartbeat CPU 0 instructions: 81000000 cycles: 162007276 heartbeat IPC: 0.57895 cumulative IPC: 0.454987 (Simulation time: 1 hr 1 min 31 sec) 
Heartbeat CPU 0 instructions: 82000003 cycles: 163652361 heartbeat IPC: 0.607873 cumulative IPC: 0.456582 (Simulation time: 1 hr 2 min 9 sec) 
Heartbeat CPU 0 instructions: 83000003 cycles: 165382269 heartbeat IPC: 0.578065 cumulative IPC: 0.4579 (Simulation time: 1 hr 2 min 44 sec) 
Heartbeat CPU 0 instructions: 84000000 cycles: 167119728 heartbeat IPC: 0.575551 cumulative IPC: 0.459169 (Simulation time: 1 hr 3 min 19 sec) 
Heartbeat CPU 0 instructions: 85000003 cycles: 168859002 heartbeat IPC: 0.574954 cumulative IPC: 0.460405 (Simulation time: 1 hr 3 min 52 sec) 
Heartbeat CPU 0 instructions: 86000000 cycles: 170554216 heartbeat IPC: 0.589894 cumulative IPC: 0.461739 (Simulation time: 1 hr 4 min 26 sec) 
Heartbeat CPU 0 instructions: 87000000 cycles: 172227749 heartbeat IPC: 0.597538 cumulative IPC: 0.463106 (Simulation time: 1 hr 4 min 59 sec) 
Heartbeat CPU 0 instructions: 88000000 cycles: 173995674 heartbeat IPC: 0.565635 cumulative IPC: 0.464184 (Simulation time: 1 hr 5 min 33 sec) 
Heartbeat CPU 0 instructions: 89000002 cycles: 179095476 heartbeat IPC: 0.196086 cumulative IPC: 0.456287 (Simulation time: 1 hr 6 min 6 sec) 
Heartbeat CPU 0 instructions: 90000002 cycles: 183354801 heartbeat IPC: 0.234779 cumulative IPC: 0.450969 (Simulation time: 1 hr 6 min 41 sec) 
Heartbeat CPU 0 instructions: 91000003 cycles: 185002956 heartbeat IPC: 0.60674 cumulative IPC: 0.452403 (Simulation time: 1 hr 7 min 13 sec) 
Heartbeat CPU 0 instructions: 92000000 cycles: 186731306 heartbeat IPC: 0.578585 cumulative IPC: 0.453609 (Simulation time: 1 hr 7 min 46 sec) 
Heartbeat CPU 0 instructions: 93000000 cycles: 188471203 heartbeat IPC: 0.574747 cumulative IPC: 0.454764 (Simulation time: 1 hr 8 min 16 sec) 
Heartbeat CPU 0 instructions: 94000003 cycles: 190212675 heartbeat IPC: 0.574229 cumulative IPC: 0.455893 (Simulation time: 1 hr 8 min 46 sec) 
Heartbeat CPU 0 instructions: 95000000 cycles: 191912396 heartbeat IPC: 0.58833 cumulative IPC: 0.457104 (Simulation time: 1 hr 9 min 16 sec) 
Heartbeat CPU 0 instructions: 96000000 cycles: 193581920 heartbeat IPC: 0.598973 cumulative IPC: 0.458366 (Simulation time: 1 hr 9 min 45 sec) 
Heartbeat CPU 0 instructions: 97000001 cycles: 195318036 heartbeat IPC: 0.575999 cumulative IPC: 0.459445 (Simulation time: 1 hr 10 min 11 sec) 
Heartbeat CPU 0 instructions: 98000000 cycles: 197059175 heartbeat IPC: 0.574336 cumulative IPC: 0.460491 (Simulation time: 1 hr 10 min 37 sec) 
Heartbeat CPU 0 instructions: 99000001 cycles: 198798264 heartbeat IPC: 0.575014 cumulative IPC: 0.461524 (Simulation time: 1 hr 11 min 4 sec) 
Heartbeat CPU 0 instructions: 100000000 cycles: 200469123 heartbeat IPC: 0.598494 cumulative IPC: 0.462701 (Simulation time: 1 hr 11 min 31 sec) 
Heartbeat CPU 0 instructions: 101000000 cycles: 202171268 heartbeat IPC: 0.587494 cumulative IPC: 0.463783 (Simulation time: 1 hr 11 min 57 sec) 
Heartbeat CPU 0 instructions: 102000000 cycles: 206189177 heartbeat IPC: 0.248886 cumulative IPC: 0.459471 (Simulation time: 1 hr 12 min 23 sec) 
Heartbeat CPU 0 instructions: 103000000 cycles: 211530629 heartbeat IPC: 0.187215 cumulative IPC: 0.452397 (Simulation time: 1 hr 12 min 46 sec) 
Heartbeat CPU 0 instructions: 104000000 cycles: 213234556 heartbeat IPC: 0.58688 cumulative IPC: 0.453503 (Simulation time: 1 hr 13 min 7 sec) 
Heartbeat CPU 0 instructions: 105000000 cycles: 214897933 heartbeat IPC: 0.601187 cumulative IPC: 0.454678 (Simulation time: 1 hr 13 min 26 sec) 
Heartbeat CPU 0 instructions: 106000002 cycles: 216631285 heartbeat IPC: 0.576918 cumulative IPC: 0.455684 (Simulation time: 1 hr 13 min 45 sec) 
Heartbeat CPU 0 instructions: 107000001 cycles: 218372196 heartbeat IPC: 0.574411 cumulative IPC: 0.456657 (Simulation time: 1 hr 14 min 2 sec) 
Heartbeat CPU 0 instructions: 108000000 cycles: 220108063 heartbeat IPC: 0.57608 cumulative IPC: 0.457625 (Simulation time: 1 hr 14 min 17 sec) 
Heartbeat CPU 0 instructions: 109000001 cycles: 221781180 heartbeat IPC: 0.597687 cumulative IPC: 0.458711 (Simulation time: 1 hr 14 min 32 sec) 
Heartbeat CPU 0 instructions: 110000003 cycles: 223474348 heartbeat IPC: 0.59061 cumulative IPC: 0.459738 (Simulation time: 1 hr 14 min 45 sec) 
Finished CPU 0 instructions: 100000000 cycles: 217515381 cummulative IPC: 0.459738 (Simulation time: 1 hr 14 min 45 sec) 

ChampSim completed all CPUs

Region of Interest Statistics

CPU 0 cummulative IPC: 0.459738 instructions: 100000000 cycles: 217515381
LLC TOTAL     ACCESS:    1164143  HIT:     328708  MISS:     835435
LLC LOAD      ACCESS:      21813  HIT:       2230  MISS:      19583
LLC RFO       ACCESS:     264086  HIT:      77223  MISS:     186863
LLC PREFETCH  ACCESS:     612139  HIT:     133932  MISS:     478207
LLC WRITEBACK ACCESS:     266105  HIT:     115323  MISS:     150782
Insertion Distribution: 
	LOAD 0 0 10442 10332 
	RFO 12366 0 20243 166738 
	PREF 0 42954 63945 421355 
	WRITEBACK 0 0 0 153174 
Total Prefetch Downgrades: 50054
