
*** ChampSim Multicore Out-of-Order Simulator ***

Warmup Instructions: 10000000
Simulation Instructions: 100000000
Configuration: 2
Number of CPUs: 1
LLC sets: 2048
LLC ways: 16
Off-chip DRAM Channels: 1 Width: 64-bit Data Rate: 1600 MT/s

CPU 0 runs /datasets/cs240c-wi22-a00-public/data/Assignment2-gz/zeusmp_300B.trace.gz
CPU 0 L1D next line prefetcher
CPU 0 L2C IP-based stride prefetcher
Initialize SRRIP state
Heartbeat CPU 0 instructions: 1000003 cycles: 509580 heartbeat IPC: 1.96241 cumulative IPC: 1.96241 (Simulation time: 0 hr 0 min 35 sec) 
Heartbeat CPU 0 instructions: 2000003 cycles: 1062148 heartbeat IPC: 1.80973 cumulative IPC: 1.88298 (Simulation time: 0 hr 1 min 6 sec) 
Heartbeat CPU 0 instructions: 3000002 cycles: 1606421 heartbeat IPC: 1.83731 cumulative IPC: 1.86751 (Simulation time: 0 hr 1 min 39 sec) 
Heartbeat CPU 0 instructions: 4000000 cycles: 2093210 heartbeat IPC: 2.05427 cumulative IPC: 1.91094 (Simulation time: 0 hr 2 min 14 sec) 
Heartbeat CPU 0 instructions: 5000001 cycles: 2575892 heartbeat IPC: 2.07176 cumulative IPC: 1.94108 (Simulation time: 0 hr 2 min 45 sec) 
Heartbeat CPU 0 instructions: 6000000 cycles: 3062581 heartbeat IPC: 2.0547 cumulative IPC: 1.95913 (Simulation time: 0 hr 3 min 18 sec) 
Heartbeat CPU 0 instructions: 7000001 cycles: 3590722 heartbeat IPC: 1.89344 cumulative IPC: 1.94947 (Simulation time: 0 hr 3 min 51 sec) 
Heartbeat CPU 0 instructions: 8000000 cycles: 4144747 heartbeat IPC: 1.80497 cumulative IPC: 1.93015 (Simulation time: 0 hr 4 min 22 sec) 
Heartbeat CPU 0 instructions: 9000000 cycles: 4672649 heartbeat IPC: 1.89429 cumulative IPC: 1.9261 (Simulation time: 0 hr 4 min 55 sec) 
Heartbeat CPU 0 instructions: 10000002 cycles: 5158943 heartbeat IPC: 2.05637 cumulative IPC: 1.93838 (Simulation time: 0 hr 5 min 28 sec) 

Warmup complete CPU 0 instructions: 10000002 cycles: 5158943 (Simulation time: 0 hr 5 min 28 sec) 

Heartbeat CPU 0 instructions: 11000003 cycles: 5846520 heartbeat IPC: 1.45438 cumulative IPC: 1.45438 (Simulation time: 0 hr 6 min 4 sec) 
Heartbeat CPU 0 instructions: 12000000 cycles: 6527765 heartbeat IPC: 1.4679 cumulative IPC: 1.46111 (Simulation time: 0 hr 6 min 41 sec) 
Heartbeat CPU 0 instructions: 13000000 cycles: 7326581 heartbeat IPC: 1.25185 cumulative IPC: 1.38399 (Simulation time: 0 hr 7 min 16 sec) 
Heartbeat CPU 0 instructions: 14000000 cycles: 8140182 heartbeat IPC: 1.2291 cumulative IPC: 1.34172 (Simulation time: 0 hr 7 min 53 sec) 
Heartbeat CPU 0 instructions: 15000002 cycles: 8868343 heartbeat IPC: 1.37333 cumulative IPC: 1.34793 (Simulation time: 0 hr 8 min 28 sec) 
Heartbeat CPU 0 instructions: 16000000 cycles: 9552597 heartbeat IPC: 1.46144 cumulative IPC: 1.36561 (Simulation time: 0 hr 9 min 3 sec) 
Heartbeat CPU 0 instructions: 17000003 cycles: 10240610 heartbeat IPC: 1.45347 cumulative IPC: 1.3775 (Simulation time: 0 hr 9 min 37 sec) 
Heartbeat CPU 0 instructions: 18000000 cycles: 10938079 heartbeat IPC: 1.43375 cumulative IPC: 1.38429 (Simulation time: 0 hr 10 min 13 sec) 
Heartbeat CPU 0 instructions: 19000003 cycles: 11756040 heartbeat IPC: 1.22256 cumulative IPC: 1.36424 (Simulation time: 0 hr 10 min 47 sec) 
Heartbeat CPU 0 instructions: 20000000 cycles: 12568227 heartbeat IPC: 1.23124 cumulative IPC: 1.34966 (Simulation time: 0 hr 11 min 20 sec) 
Heartbeat CPU 0 instructions: 21000001 cycles: 13268170 heartbeat IPC: 1.42869 cumulative IPC: 1.35648 (Simulation time: 0 hr 11 min 54 sec) 
Heartbeat CPU 0 instructions: 22000000 cycles: 13958167 heartbeat IPC: 1.44928 cumulative IPC: 1.36376 (Simulation time: 0 hr 12 min 29 sec) 
Heartbeat CPU 0 instructions: 23000001 cycles: 14651049 heartbeat IPC: 1.44325 cumulative IPC: 1.36956 (Simulation time: 0 hr 13 min 3 sec) 
Heartbeat CPU 0 instructions: 24000000 cycles: 15383324 heartbeat IPC: 1.36561 cumulative IPC: 1.36928 (Simulation time: 0 hr 13 min 38 sec) 
Heartbeat CPU 0 instructions: 25000000 cycles: 16197415 heartbeat IPC: 1.22836 cumulative IPC: 1.35888 (Simulation time: 0 hr 14 min 13 sec) 
Heartbeat CPU 0 instructions: 26000000 cycles: 16999123 heartbeat IPC: 1.24734 cumulative IPC: 1.35133 (Simulation time: 0 hr 14 min 49 sec) 
Heartbeat CPU 0 instructions: 27000002 cycles: 17685662 heartbeat IPC: 1.45658 cumulative IPC: 1.3571 (Simulation time: 0 hr 15 min 23 sec) 
Heartbeat CPU 0 instructions: 28000000 cycles: 18375381 heartbeat IPC: 1.44986 cumulative IPC: 1.36194 (Simulation time: 0 hr 15 min 58 sec) 
Heartbeat CPU 0 instructions: 29000003 cycles: 19065340 heartbeat IPC: 1.44937 cumulative IPC: 1.36628 (Simulation time: 0 hr 16 min 33 sec) 
Heartbeat CPU 0 instructions: 30000002 cycles: 19826228 heartbeat IPC: 1.31425 cumulative IPC: 1.36358 (Simulation time: 0 hr 17 min 8 sec) 
Heartbeat CPU 0 instructions: 31000001 cycles: 20643186 heartbeat IPC: 1.22405 cumulative IPC: 1.35622 (Simulation time: 0 hr 17 min 43 sec) 
Heartbeat CPU 0 instructions: 32000000 cycles: 21412761 heartbeat IPC: 1.29942 cumulative IPC: 1.35353 (Simulation time: 0 hr 18 min 18 sec) 
Heartbeat CPU 0 instructions: 33000000 cycles: 22096750 heartbeat IPC: 1.46201 cumulative IPC: 1.35791 (Simulation time: 0 hr 18 min 54 sec) 
Heartbeat CPU 0 instructions: 34000000 cycles: 22793146 heartbeat IPC: 1.43596 cumulative IPC: 1.36099 (Simulation time: 0 hr 19 min 27 sec) 
Heartbeat CPU 0 instructions: 35000002 cycles: 23480767 heartbeat IPC: 1.45429 cumulative IPC: 1.36449 (Simulation time: 0 hr 20 min 3 sec) 
Heartbeat CPU 0 instructions: 36000000 cycles: 24267712 heartbeat IPC: 1.27073 cumulative IPC: 1.36063 (Simulation time: 0 hr 20 min 37 sec) 
Heartbeat CPU 0 instructions: 37000003 cycles: 25082302 heartbeat IPC: 1.22762 cumulative IPC: 1.35519 (Simulation time: 0 hr 21 min 12 sec) 
Heartbeat CPU 0 instructions: 38000001 cycles: 25824752 heartbeat IPC: 1.34689 cumulative IPC: 1.35489 (Simulation time: 0 hr 21 min 46 sec) 
Heartbeat CPU 0 instructions: 39000002 cycles: 26510521 heartbeat IPC: 1.45822 cumulative IPC: 1.35821 (Simulation time: 0 hr 22 min 20 sec) 
Heartbeat CPU 0 instructions: 40000000 cycles: 27203830 heartbeat IPC: 1.44236 cumulative IPC: 1.36086 (Simulation time: 0 hr 22 min 51 sec) 
Heartbeat CPU 0 instructions: 41000001 cycles: 27888887 heartbeat IPC: 1.45973 cumulative IPC: 1.36384 (Simulation time: 0 hr 23 min 25 sec) 
Heartbeat CPU 0 instructions: 42000001 cycles: 28710469 heartbeat IPC: 1.21716 cumulative IPC: 1.35872 (Simulation time: 0 hr 24 min 0 sec) 
Heartbeat CPU 0 instructions: 43000000 cycles: 29521201 heartbeat IPC: 1.23345 cumulative IPC: 1.35455 (Simulation time: 0 hr 24 min 36 sec) 
Heartbeat CPU 0 instructions: 44000000 cycles: 30231380 heartbeat IPC: 1.4081 cumulative IPC: 1.35607 (Simulation time: 0 hr 25 min 10 sec) 
Heartbeat CPU 0 instructions: 45000002 cycles: 30920815 heartbeat IPC: 1.45047 cumulative IPC: 1.3586 (Simulation time: 0 hr 25 min 44 sec) 
Heartbeat CPU 0 instructions: 46000002 cycles: 31612446 heartbeat IPC: 1.44586 cumulative IPC: 1.36088 (Simulation time: 0 hr 26 min 16 sec) 
Heartbeat CPU 0 instructions: 47000001 cycles: 32331791 heartbeat IPC: 1.39015 cumulative IPC: 1.36165 (Simulation time: 0 hr 26 min 50 sec) 
Heartbeat CPU 0 instructions: 48000000 cycles: 33144727 heartbeat IPC: 1.23011 cumulative IPC: 1.35783 (Simulation time: 0 hr 27 min 24 sec) 
Heartbeat CPU 0 instructions: 49000003 cycles: 33951544 heartbeat IPC: 1.23944 cumulative IPC: 1.35451 (Simulation time: 0 hr 27 min 59 sec) 
Heartbeat CPU 0 instructions: 50000001 cycles: 34637321 heartbeat IPC: 1.4582 cumulative IPC: 1.35693 (Simulation time: 0 hr 28 min 34 sec) 
Heartbeat CPU 0 instructions: 51000002 cycles: 35325196 heartbeat IPC: 1.45375 cumulative IPC: 1.35913 (Simulation time: 0 hr 29 min 6 sec) 
Heartbeat CPU 0 instructions: 52000000 cycles: 36015455 heartbeat IPC: 1.44873 cumulative IPC: 1.36114 (Simulation time: 0 hr 29 min 40 sec) 
Heartbeat CPU 0 instructions: 53000000 cycles: 36765369 heartbeat IPC: 1.33349 cumulative IPC: 1.36048 (Simulation time: 0 hr 30 min 14 sec) 
Heartbeat CPU 0 instructions: 54000002 cycles: 37578304 heartbeat IPC: 1.23011 cumulative IPC: 1.35721 (Simulation time: 0 hr 30 min 49 sec) 
Heartbeat CPU 0 instructions: 55000001 cycles: 38356763 heartbeat IPC: 1.28459 cumulative IPC: 1.35551 (Simulation time: 0 hr 31 min 24 sec) 
Heartbeat CPU 0 instructions: 56000000 cycles: 39044593 heartbeat IPC: 1.45385 cumulative IPC: 1.35751 (Simulation time: 0 hr 31 min 58 sec) 
Heartbeat CPU 0 instructions: 57000000 cycles: 39735760 heartbeat IPC: 1.44683 cumulative IPC: 1.35929 (Simulation time: 0 hr 32 min 31 sec) 
Heartbeat CPU 0 instructions: 58000000 cycles: 40425776 heartbeat IPC: 1.44924 cumulative IPC: 1.36105 (Simulation time: 0 hr 33 min 6 sec) 
Heartbeat CPU 0 instructions: 59000003 cycles: 41200389 heartbeat IPC: 1.29097 cumulative IPC: 1.35955 (Simulation time: 0 hr 33 min 42 sec) 
Heartbeat CPU 0 instructions: 60000000 cycles: 42013567 heartbeat IPC: 1.22974 cumulative IPC: 1.35668 (Simulation time: 0 hr 34 min 15 sec) 
Heartbeat CPU 0 instructions: 61000000 cycles: 42764440 heartbeat IPC: 1.33178 cumulative IPC: 1.35618 (Simulation time: 0 hr 34 min 48 sec) 
Heartbeat CPU 0 instructions: 62000002 cycles: 43452621 heartbeat IPC: 1.45311 cumulative IPC: 1.35793 (Simulation time: 0 hr 35 min 21 sec) 
Heartbeat CPU 0 instructions: 63000003 cycles: 44143415 heartbeat IPC: 1.44761 cumulative IPC: 1.35952 (Simulation time: 0 hr 35 min 54 sec) 
Heartbeat CPU 0 instructions: 64000000 cycles: 44828551 heartbeat IPC: 1.45956 cumulative IPC: 1.36124 (Simulation time: 0 hr 36 min 27 sec) 
Heartbeat CPU 0 instructions: 65000003 cycles: 45636812 heartbeat IPC: 1.23723 cumulative IPC: 1.35877 (Simulation time: 0 hr 37 min 2 sec) 
Heartbeat CPU 0 instructions: 66000003 cycles: 46449159 heartbeat IPC: 1.231 cumulative IPC: 1.35625 (Simulation time: 0 hr 37 min 37 sec) 
Heartbeat CPU 0 instructions: 67000002 cycles: 47170685 heartbeat IPC: 1.38595 cumulative IPC: 1.35676 (Simulation time: 0 hr 38 min 9 sec) 
Heartbeat CPU 0 instructions: 68000000 cycles: 47857676 heartbeat IPC: 1.45562 cumulative IPC: 1.35835 (Simulation time: 0 hr 38 min 44 sec) 
Heartbeat CPU 0 instructions: 69000000 cycles: 48548201 heartbeat IPC: 1.44817 cumulative IPC: 1.35978 (Simulation time: 0 hr 39 min 18 sec) 
Heartbeat CPU 0 instructions: 70000001 cycles: 49261042 heartbeat IPC: 1.40284 cumulative IPC: 1.36048 (Simulation time: 0 hr 39 min 53 sec) 
Heartbeat CPU 0 instructions: 71000001 cycles: 50069800 heartbeat IPC: 1.23646 cumulative IPC: 1.35825 (Simulation time: 0 hr 40 min 26 sec) 
Heartbeat CPU 0 instructions: 72000000 cycles: 50881365 heartbeat IPC: 1.23219 cumulative IPC: 1.35601 (Simulation time: 0 hr 41 min 2 sec) 
Heartbeat CPU 0 instructions: 73000003 cycles: 51576941 heartbeat IPC: 1.43766 cumulative IPC: 1.35723 (Simulation time: 0 hr 41 min 35 sec) 
Heartbeat CPU 0 instructions: 74000001 cycles: 52263788 heartbeat IPC: 1.45593 cumulative IPC: 1.35867 (Simulation time: 0 hr 42 min 8 sec) 
Heartbeat CPU 0 instructions: 75000003 cycles: 52951772 heartbeat IPC: 1.45353 cumulative IPC: 1.36004 (Simulation time: 0 hr 42 min 40 sec) 
Heartbeat CPU 0 instructions: 76000000 cycles: 53693716 heartbeat IPC: 1.34781 cumulative IPC: 1.35985 (Simulation time: 0 hr 43 min 15 sec) 
Heartbeat CPU 0 instructions: 77000001 cycles: 54506184 heartbeat IPC: 1.23082 cumulative IPC: 1.35773 (Simulation time: 0 hr 43 min 49 sec) 
Heartbeat CPU 0 instructions: 78000003 cycles: 55292170 heartbeat IPC: 1.27229 cumulative IPC: 1.35639 (Simulation time: 0 hr 44 min 22 sec) 
Heartbeat CPU 0 instructions: 79000001 cycles: 55978234 heartbeat IPC: 1.45759 cumulative IPC: 1.35775 (Simulation time: 0 hr 44 min 56 sec) 
Heartbeat CPU 0 instructions: 80000000 cycles: 56666806 heartbeat IPC: 1.45228 cumulative IPC: 1.35902 (Simulation time: 0 hr 45 min 31 sec) 
Heartbeat CPU 0 instructions: 81000000 cycles: 57356570 heartbeat IPC: 1.44977 cumulative IPC: 1.36022 (Simulation time: 0 hr 46 min 6 sec) 
Heartbeat CPU 0 instructions: 82000002 cycles: 58124630 heartbeat IPC: 1.30198 cumulative IPC: 1.35937 (Simulation time: 0 hr 46 min 41 sec) 
Heartbeat CPU 0 instructions: 83000001 cycles: 58936778 heartbeat IPC: 1.2313 cumulative IPC: 1.35744 (Simulation time: 0 hr 47 min 15 sec) 
Heartbeat CPU 0 instructions: 84000000 cycles: 59696249 heartbeat IPC: 1.3167 cumulative IPC: 1.35687 (Simulation time: 0 hr 47 min 49 sec) 
Heartbeat CPU 0 instructions: 85000001 cycles: 60385966 heartbeat IPC: 1.44987 cumulative IPC: 1.35803 (Simulation time: 0 hr 48 min 23 sec) 
Heartbeat CPU 0 instructions: 86000002 cycles: 61077799 heartbeat IPC: 1.44544 cumulative IPC: 1.35911 (Simulation time: 0 hr 48 min 57 sec) 
Heartbeat CPU 0 instructions: 87000000 cycles: 61767885 heartbeat IPC: 1.44909 cumulative IPC: 1.36021 (Simulation time: 0 hr 49 min 31 sec) 
Heartbeat CPU 0 instructions: 88000000 cycles: 62567037 heartbeat IPC: 1.25133 cumulative IPC: 1.35869 (Simulation time: 0 hr 50 min 4 sec) 
Heartbeat CPU 0 instructions: 89000000 cycles: 63379285 heartbeat IPC: 1.23115 cumulative IPC: 1.35691 (Simulation time: 0 hr 50 min 38 sec) 
Heartbeat CPU 0 instructions: 90000002 cycles: 64112008 heartbeat IPC: 1.36477 cumulative IPC: 1.35701 (Simulation time: 0 hr 51 min 11 sec) 
Heartbeat CPU 0 instructions: 91000002 cycles: 64801199 heartbeat IPC: 1.45098 cumulative IPC: 1.3581 (Simulation time: 0 hr 51 min 43 sec) 
Heartbeat CPU 0 instructions: 92000000 cycles: 65492671 heartbeat IPC: 1.44619 cumulative IPC: 1.35911 (Simulation time: 0 hr 52 min 17 sec) 
Heartbeat CPU 0 instructions: 93000001 cycles: 66177846 heartbeat IPC: 1.45948 cumulative IPC: 1.36023 (Simulation time: 0 hr 52 min 51 sec) 
Heartbeat CPU 0 instructions: 94000000 cycles: 67002059 heartbeat IPC: 1.21328 cumulative IPC: 1.35828 (Simulation time: 0 hr 53 min 25 sec) 
Heartbeat CPU 0 instructions: 95000003 cycles: 67814676 heartbeat IPC: 1.2306 cumulative IPC: 1.35662 (Simulation time: 0 hr 53 min 59 sec) 
Heartbeat CPU 0 instructions: 96000000 cycles: 68520806 heartbeat IPC: 1.41617 cumulative IPC: 1.35728 (Simulation time: 0 hr 54 min 31 sec) 
Heartbeat CPU 0 instructions: 97000001 cycles: 69214544 heartbeat IPC: 1.44147 cumulative IPC: 1.3582 (Simulation time: 0 hr 55 min 3 sec) 
Heartbeat CPU 0 instructions: 98000000 cycles: 69913136 heartbeat IPC: 1.43145 cumulative IPC: 1.35899 (Simulation time: 0 hr 55 min 36 sec) 
Heartbeat CPU 0 instructions: 99000001 cycles: 70641146 heartbeat IPC: 1.37361 cumulative IPC: 1.35915 (Simulation time: 0 hr 56 min 8 sec) 
Heartbeat CPU 0 instructions: 100000000 cycles: 71453167 heartbeat IPC: 1.23149 cumulative IPC: 1.35758 (Simulation time: 0 hr 56 min 41 sec) 
Heartbeat CPU 0 instructions: 101000001 cycles: 72254909 heartbeat IPC: 1.24729 cumulative IPC: 1.35627 (Simulation time: 0 hr 57 min 16 sec) 
Heartbeat CPU 0 instructions: 102000003 cycles: 72940150 heartbeat IPC: 1.45934 cumulative IPC: 1.35731 (Simulation time: 0 hr 57 min 49 sec) 
Heartbeat CPU 0 instructions: 103000003 cycles: 73628495 heartbeat IPC: 1.45276 cumulative IPC: 1.35827 (Simulation time: 0 hr 58 min 20 sec) 
Heartbeat CPU 0 instructions: 104000000 cycles: 74317114 heartbeat IPC: 1.45218 cumulative IPC: 1.3592 (Simulation time: 0 hr 58 min 51 sec) 
Heartbeat CPU 0 instructions: 105000001 cycles: 75077346 heartbeat IPC: 1.31539 cumulative IPC: 1.35873 (Simulation time: 0 hr 59 min 23 sec) 
Heartbeat CPU 0 instructions: 106000002 cycles: 75885589 heartbeat IPC: 1.23725 cumulative IPC: 1.35734 (Simulation time: 0 hr 59 min 55 sec) 
Heartbeat CPU 0 instructions: 107000003 cycles: 76657972 heartbeat IPC: 1.2947 cumulative IPC: 1.35666 (Simulation time: 1 hr 0 min 27 sec) 
Heartbeat CPU 0 instructions: 108000000 cycles: 77343383 heartbeat IPC: 1.45897 cumulative IPC: 1.35763 (Simulation time: 1 hr 0 min 57 sec) 
Heartbeat CPU 0 instructions: 109000001 cycles: 78033317 heartbeat IPC: 1.44942 cumulative IPC: 1.3585 (Simulation time: 1 hr 1 min 27 sec) 
Heartbeat CPU 0 instructions: 110000000 cycles: 78721015 heartbeat IPC: 1.45413 cumulative IPC: 1.3594 (Simulation time: 1 hr 1 min 56 sec) 
Finished CPU 0 instructions: 100000002 cycles: 73562073 cummulative IPC: 1.3594 (Simulation time: 1 hr 1 min 56 sec) 

ChampSim completed all CPUs

Region of Interest Statistics

CPU 0 cummulative IPC: 1.3594 instructions: 100000002 cycles: 73562073
LLC TOTAL     ACCESS:     631944  HIT:     293183  MISS:     338761
LLC LOAD      ACCESS:      37118  HIT:      23559  MISS:      13559
LLC RFO       ACCESS:     152071  HIT:      75869  MISS:      76202
LLC PREFETCH  ACCESS:     286948  HIT:      94518  MISS:     192430
LLC WRITEBACK ACCESS:     155807  HIT:      99237  MISS:      56570
Insertion Distribution: 
	LOAD 2707 0 3956 8495 
	RFO 81 0 8903 77472 
	PREF 0 19589 45103 150149 
	WRITEBACK 0 0 0 58311 
Total Prefetch Downgrades: 22447
