Initialize SIGNATURE TABLE
ST_SET: 1
ST_WAY: 256
ST_TAG_BIT: 16
ST_TAG_MASK: ffff

Initialize PATTERN TABLE
PT_SET: 512
PT_WAY: 4
SIG_DELTA_BIT: 7
C_SIG_BIT: 4
C_DELTA_BIT: 4

Initialize PREFETCH FILTER
FILTER_SET: 1024

*** ChampSim Multicore Out-of-Order Simulator ***

Warmup Instructions: 50000000
Simulation Instructions: 50000000
Number of CPUs: 1
LLC sets: 2048
LLC ways: 16
Off-chip DRAM Size: 4096 MB Channels: 1 Width: 64-bit Data Rate: 3200 MT/s

CPU 0 runs /Users/gandhardeshpande/Desktop/CSE240C/HW1/ChampSim/ipc1_public/server_039.champsimtrace.xz
CPU 0 L1I next line prefetcher
Running FNL-MMA for L1I
CPU 0 L1D next line prefetcher
Heartbeat CPU 0 instructions: 10000003 cycles: 3451475 heartbeat IPC: 2.89731 cumulative IPC: 2.89731 (Simulation time: 0 hr 0 min 15 sec) 
Heartbeat CPU 0 instructions: 20000002 cycles: 6896045 heartbeat IPC: 2.90312 cumulative IPC: 2.90021 (Simulation time: 0 hr 0 min 30 sec) 
Heartbeat CPU 0 instructions: 30000001 cycles: 10342442 heartbeat IPC: 2.90158 cumulative IPC: 2.90067 (Simulation time: 0 hr 0 min 44 sec) 
Heartbeat CPU 0 instructions: 40000002 cycles: 13784253 heartbeat IPC: 2.90545 cumulative IPC: 2.90186 (Simulation time: 0 hr 0 min 59 sec) 
Heartbeat CPU 0 instructions: 50000001 cycles: 17225425 heartbeat IPC: 2.90599 cumulative IPC: 2.90269 (Simulation time: 0 hr 1 min 14 sec) 

Warmup complete CPU 0 instructions: 50000001 cycles: 17225425 (Simulation time: 0 hr 1 min 14 sec) 

Heartbeat CPU 0 instructions: 60000000 cycles: 23001280 heartbeat IPC: 1.73135 cumulative IPC: 1.73135 (Simulation time: 0 hr 1 min 29 sec) 
Heartbeat CPU 0 instructions: 70000000 cycles: 28766834 heartbeat IPC: 1.73444 cumulative IPC: 1.73289 (Simulation time: 0 hr 1 min 43 sec) 
Heartbeat CPU 0 instructions: 80000000 cycles: 34528736 heartbeat IPC: 1.73554 cumulative IPC: 1.73377 (Simulation time: 0 hr 1 min 58 sec) 
Heartbeat CPU 0 instructions: 90000001 cycles: 40296866 heartbeat IPC: 1.73366 cumulative IPC: 1.73375 (Simulation time: 0 hr 2 min 13 sec) 
Heartbeat CPU 0 instructions: 100000002 cycles: 46073185 heartbeat IPC: 1.73121 cumulative IPC: 1.73324 (Simulation time: 0 hr 2 min 27 sec) 
Finished CPU 0 instructions: 50000001 cycles: 28847760 cumulative IPC: 1.73324 (Simulation time: 0 hr 2 min 27 sec) 

ChampSim completed all CPUs

Region of Interest Statistics

CPU 0 cumulative IPC: 1.73324 instructions: 50000001 cycles: 28847760
L1D TOTAL     ACCESS:   19874647  HIT:   19379971  MISS:     494676
L1D LOAD      ACCESS:    6486813  HIT:    6265184  MISS:     221629
L1D RFO       ACCESS:    7089088  HIT:    7022169  MISS:      66919
L1D PREFETCH  ACCESS:    6298746  HIT:    6092618  MISS:     206128
L1D WRITEBACK ACCESS:          0  HIT:          0  MISS:          0
L1D PREFETCH  REQUESTED:    6502673  ISSUED:    6369006  USEFUL:      50054  USELESS:     156078
L1D AVERAGE MISS LATENCY: 15.0411 cycles
L1I TOTAL     ACCESS:   15807643  HIT:   11056434  MISS:    4751209
L1I LOAD      ACCESS:    9338386  HIT:    9276419  MISS:      61967
L1I RFO       ACCESS:          0  HIT:          0  MISS:          0
L1I PREFETCH  ACCESS:    6469257  HIT:    1780015  MISS:    4689242
L1I WRITEBACK ACCESS:          0  HIT:          0  MISS:          0
L1I PREFETCH  REQUESTED:    6630790  ISSUED:    6630790  USEFUL:    4138738  USELESS:     550554
L1I AVERAGE MISS LATENCY: 14.3883 cycles
L2C TOTAL     ACCESS:    7045049  HIT:    7044961  MISS:         88
L2C LOAD      ACCESS:     225910  HIT:     225908  MISS:          2
L2C RFO       ACCESS:      66751  HIT:      66751  MISS:          0
L2C PREFETCH  ACCESS:    6572311  HIT:    6572225  MISS:         86
L2C WRITEBACK ACCESS:     180077  HIT:     180077  MISS:          0
L2C PREFETCH  REQUESTED:    4747926  ISSUED:    4747862  USEFUL:          2  USELESS:          0
L2C AVERAGE MISS LATENCY: 48.1705 cycles
LLC TOTAL     ACCESS:     770147  HIT:     769867  MISS:        280
LLC LOAD      ACCESS:          2  HIT:          1  MISS:          1
LLC RFO       ACCESS:          0  HIT:          0  MISS:          0
LLC PREFETCH  ACCESS:     770145  HIT:     769866  MISS:        279
LLC WRITEBACK ACCESS:          0  HIT:          0  MISS:          0
LLC PREFETCH  REQUESTED:          0  ISSUED:          0  USEFUL:          1  USELESS:          0
LLC AVERAGE MISS LATENCY: 170.718 cycles
Major fault: 0 Minor fault: 356
I-Shadow cache 408 bytes
Touched + WorthPF tables 24576 bytes 
MMA filter 174 bytes 
FNL filter 272 bytes 
TOTAL PREFETCHER STORAGE SIZE: 98134 bytes
CPU 0 L1I next line prefetcher final stats
CPU 0 L1D next line prefetcher final stats

DRAM Statistics
 CHANNEL 0
 RQ ROW_BUFFER_HIT:         30  ROW_BUFFER_MISS:        250
 DBUS_CONGESTED:         46
 WQ ROW_BUFFER_HIT:          0  ROW_BUFFER_MISS:          0  FULL:          0

 AVG_CONGESTED_CYCLE: 5

CPU 0 Branch Prediction Accuracy: 99.9091% MPKI: 0.1547 Average ROB Occupancy at Mispredict: 305.051

Branch types
NOT_BRANCH: 41495030 82.9901%
BRANCH_DIRECT_JUMP: 491309 0.982618%
BRANCH_INDIRECT: 0 0%
BRANCH_CONDITIONAL: 5595262 11.1905%
BRANCH_DIRECT_CALL: 1028409 2.05682%
BRANCH_INDIRECT_CALL: 180756 0.361512%
BRANCH_RETURN: 1209169 2.41834%
BRANCH_OTHER: 0 0%

