Initialize SIGNATURE TABLE
ST_SET: 1
ST_WAY: 256
ST_TAG_BIT: 16
ST_TAG_MASK: ffff

Initialize PATTERN TABLE
PT_SET: 512
PT_WAY: 4
SIG_DELTA_BIT: 7
C_SIG_BIT: 4
C_DELTA_BIT: 4

Initialize PREFETCH FILTER
FILTER_SET: 1024

*** ChampSim Multicore Out-of-Order Simulator ***

Warmup Instructions: 50000000
Simulation Instructions: 50000000
Number of CPUs: 1
LLC sets: 2048
LLC ways: 16
Off-chip DRAM Size: 4096 MB Channels: 1 Width: 64-bit Data Rate: 3200 MT/s

CPU 0 runs /Users/gandhardeshpande/Desktop/CSE240C/HW1/ChampSim/ipc1_public/server_037.champsimtrace.xz
CPU 0 L1I next line prefetcher
Running FNL-MMA for L1I
CPU 0 L1D next line prefetcher
Heartbeat CPU 0 instructions: 10000001 cycles: 3318994 heartbeat IPC: 3.01296 cumulative IPC: 3.01296 (Simulation time: 0 hr 0 min 15 sec) 
Heartbeat CPU 0 instructions: 20000002 cycles: 6635325 heartbeat IPC: 3.01538 cumulative IPC: 3.01417 (Simulation time: 0 hr 0 min 30 sec) 
Heartbeat CPU 0 instructions: 30000003 cycles: 9999549 heartbeat IPC: 2.97245 cumulative IPC: 3.00014 (Simulation time: 0 hr 0 min 45 sec) 
Heartbeat CPU 0 instructions: 40000000 cycles: 13317664 heartbeat IPC: 3.01376 cumulative IPC: 3.00353 (Simulation time: 0 hr 0 min 59 sec) 
Heartbeat CPU 0 instructions: 50000003 cycles: 16635108 heartbeat IPC: 3.01437 cumulative IPC: 3.00569 (Simulation time: 0 hr 1 min 14 sec) 

Warmup complete CPU 0 instructions: 50000003 cycles: 16635108 (Simulation time: 0 hr 1 min 14 sec) 

Heartbeat CPU 0 instructions: 60000001 cycles: 23028436 heartbeat IPC: 1.56413 cumulative IPC: 1.56413 (Simulation time: 0 hr 1 min 30 sec) 
Heartbeat CPU 0 instructions: 70000000 cycles: 29528390 heartbeat IPC: 1.53847 cumulative IPC: 1.5512 (Simulation time: 0 hr 1 min 46 sec) 
Heartbeat CPU 0 instructions: 80000000 cycles: 35930105 heartbeat IPC: 1.56208 cumulative IPC: 1.55481 (Simulation time: 0 hr 2 min 2 sec) 
Heartbeat CPU 0 instructions: 90000002 cycles: 42349157 heartbeat IPC: 1.55786 cumulative IPC: 1.55557 (Simulation time: 0 hr 2 min 18 sec) 
*** Reached end of trace for Core: 0 Repeating trace: /Users/gandhardeshpande/Desktop/CSE240C/HW1/ChampSim/ipc1_public/server_037.champsimtrace.xz
Heartbeat CPU 0 instructions: 100000000 cycles: 48765692 heartbeat IPC: 1.55847 cumulative IPC: 1.55615 (Simulation time: 0 hr 2 min 33 sec) 
Finished CPU 0 instructions: 50000001 cycles: 32130585 cumulative IPC: 1.55615 (Simulation time: 0 hr 2 min 33 sec) 

ChampSim completed all CPUs

Region of Interest Statistics

CPU 0 cumulative IPC: 1.55615 instructions: 50000001 cycles: 32130585
L1D TOTAL     ACCESS:   18684240  HIT:   17706317  MISS:     977923
L1D LOAD      ACCESS:    6358342  HIT:    5866599  MISS:     491743
L1D RFO       ACCESS:    6204946  HIT:    6140912  MISS:      64034
L1D PREFETCH  ACCESS:    6120952  HIT:    5698806  MISS:     422146
L1D WRITEBACK ACCESS:          0  HIT:          0  MISS:          0
L1D PREFETCH  REQUESTED:    6395770  ISSUED:    6242720  USEFUL:     117063  USELESS:     305088
L1D AVERAGE MISS LATENCY: 29.5675 cycles
L1I TOTAL     ACCESS:   15518625  HIT:   10997305  MISS:    4521320
L1I LOAD      ACCESS:    9416261  HIT:    9370470  MISS:      45791
L1I RFO       ACCESS:          0  HIT:          0  MISS:          0
L1I PREFETCH  ACCESS:    6102364  HIT:    1626835  MISS:    4475529
L1I WRITEBACK ACCESS:          0  HIT:          0  MISS:          0
L1I PREFETCH  REQUESTED:    6250092  ISSUED:    6250092  USEFUL:    4034013  USELESS:     441540
L1I AVERAGE MISS LATENCY: 14.7651 cycles
L2C TOTAL     ACCESS:    7959084  HIT:    7630279  MISS:     328805
L2C LOAD      ACCESS:     498135  HIT:     352246  MISS:     145889
L2C RFO       ACCESS:      63737  HIT:      35765  MISS:      27972
L2C PREFETCH  ACCESS:    7107689  HIT:    6953800  MISS:     153889
L2C WRITEBACK ACCESS:     289523  HIT:     288468  MISS:       1055
L2C PREFETCH  REQUESTED:    6613137  ISSUED:    6597628  USEFUL:       6944  USELESS:     146714
L2C AVERAGE MISS LATENCY: 45.3236 cycles
LLC TOTAL     ACCESS:    1828415  HIT:    1765679  MISS:      62736
LLC LOAD      ACCESS:     145850  HIT:     132869  MISS:      12981
LLC RFO       ACCESS:      27970  HIT:      22965  MISS:       5005
LLC PREFETCH  ACCESS:    1508405  HIT:    1464341  MISS:      44064
LLC WRITEBACK ACCESS:     146190  HIT:     145504  MISS:        686
LLC PREFETCH  REQUESTED:          0  ISSUED:          0  USEFUL:       4286  USELESS:      39334
LLC AVERAGE MISS LATENCY: 167.463 cycles
Major fault: 0 Minor fault: 5653
I-Shadow cache 408 bytes
Touched + WorthPF tables 24576 bytes 
MMA filter 174 bytes 
FNL filter 272 bytes 
TOTAL PREFETCHER STORAGE SIZE: 98134 bytes
CPU 0 L1I next line prefetcher final stats
CPU 0 L1D next line prefetcher final stats

DRAM Statistics
 CHANNEL 0
 RQ ROW_BUFFER_HIT:      11257  ROW_BUFFER_MISS:      50793
 DBUS_CONGESTED:      29185
 WQ ROW_BUFFER_HIT:       1423  ROW_BUFFER_MISS:      11231  FULL:          0

 AVG_CONGESTED_CYCLE: 5

CPU 0 Branch Prediction Accuracy: 99.913% MPKI: 0.15656 Average ROB Occupancy at Mispredict: 226.06

Branch types
NOT_BRANCH: 41001725 82.0034%
BRANCH_DIRECT_JUMP: 541941 1.08388%
BRANCH_INDIRECT: 59716 0.119432%
BRANCH_CONDITIONAL: 5916854 11.8337%
BRANCH_DIRECT_CALL: 1005465 2.01093%
BRANCH_INDIRECT_CALL: 234433 0.468866%
BRANCH_RETURN: 1239877 2.47975%
BRANCH_OTHER: 0 0%

