Initialize SIGNATURE TABLE
ST_SET: 1
ST_WAY: 256
ST_TAG_BIT: 16
ST_TAG_MASK: ffff

Initialize PATTERN TABLE
PT_SET: 512
PT_WAY: 4
SIG_DELTA_BIT: 7
C_SIG_BIT: 4
C_DELTA_BIT: 4

Initialize PREFETCH FILTER
FILTER_SET: 1024

*** ChampSim Multicore Out-of-Order Simulator ***

Warmup Instructions: 50000000
Simulation Instructions: 50000000
Number of CPUs: 1
LLC sets: 2048
LLC ways: 16
Off-chip DRAM Size: 4096 MB Channels: 1 Width: 64-bit Data Rate: 3200 MT/s

CPU 0 runs /Users/gandhardeshpande/Desktop/CSE240C/HW1/ChampSim/ipc1_public/spec_gcc_001.champsimtrace.xz
CPU 0 L1I next line prefetcher
Running FNL-MMA for L1I
CPU 0 L1D next line prefetcher
Heartbeat CPU 0 instructions: 10000003 cycles: 3218574 heartbeat IPC: 3.10697 cumulative IPC: 3.10697 (Simulation time: 0 hr 0 min 14 sec) 
Heartbeat CPU 0 instructions: 20000002 cycles: 6462710 heartbeat IPC: 3.08248 cumulative IPC: 3.09468 (Simulation time: 0 hr 0 min 27 sec) 
Heartbeat CPU 0 instructions: 30000000 cycles: 9663896 heartbeat IPC: 3.12384 cumulative IPC: 3.10434 (Simulation time: 0 hr 0 min 40 sec) 
Heartbeat CPU 0 instructions: 40000001 cycles: 12905211 heartbeat IPC: 3.08517 cumulative IPC: 3.09952 (Simulation time: 0 hr 0 min 53 sec) 
Heartbeat CPU 0 instructions: 50000001 cycles: 16145254 heartbeat IPC: 3.08638 cumulative IPC: 3.09689 (Simulation time: 0 hr 1 min 6 sec) 

Warmup complete CPU 0 instructions: 50000001 cycles: 16145254 (Simulation time: 0 hr 1 min 6 sec) 

Heartbeat CPU 0 instructions: 60000000 cycles: 23849795 heartbeat IPC: 1.29794 cumulative IPC: 1.29794 (Simulation time: 0 hr 1 min 18 sec) 
Heartbeat CPU 0 instructions: 70000002 cycles: 31687832 heartbeat IPC: 1.27583 cumulative IPC: 1.28679 (Simulation time: 0 hr 1 min 30 sec) 
Heartbeat CPU 0 instructions: 80000000 cycles: 39210261 heartbeat IPC: 1.32936 cumulative IPC: 1.30067 (Simulation time: 0 hr 1 min 41 sec) 
Heartbeat CPU 0 instructions: 90000001 cycles: 47046867 heartbeat IPC: 1.27606 cumulative IPC: 1.29443 (Simulation time: 0 hr 1 min 53 sec) 
Heartbeat CPU 0 instructions: 100000000 cycles: 55158390 heartbeat IPC: 1.23281 cumulative IPC: 1.28162 (Simulation time: 0 hr 2 min 5 sec) 
Finished CPU 0 instructions: 50000000 cycles: 39013140 cumulative IPC: 1.28162 (Simulation time: 0 hr 2 min 5 sec) 

ChampSim completed all CPUs

Region of Interest Statistics

CPU 0 cumulative IPC: 1.28162 instructions: 50000000 cycles: 39013140
L1D TOTAL     ACCESS:   19329266  HIT:   18224115  MISS:    1105151
L1D LOAD      ACCESS:    7235366  HIT:    6755835  MISS:     479531
L1D RFO       ACCESS:    5117211  HIT:    5037693  MISS:      79518
L1D PREFETCH  ACCESS:    6976689  HIT:    6430587  MISS:     546102
L1D WRITEBACK ACCESS:          0  HIT:          0  MISS:          0
L1D PREFETCH  REQUESTED:    7279066  ISSUED:    7181282  USEFUL:     275869  USELESS:     270245
L1D AVERAGE MISS LATENCY: 25.6102 cycles
L1I TOTAL     ACCESS:   10818255  HIT:   10353051  MISS:     465204
L1I LOAD      ACCESS:    9279948  HIT:    9196412  MISS:      83536
L1I RFO       ACCESS:          0  HIT:          0  MISS:          0
L1I PREFETCH  ACCESS:    1538307  HIT:    1156639  MISS:     381668
L1I WRITEBACK ACCESS:          0  HIT:          0  MISS:          0
L1I PREFETCH  REQUESTED:    1585841  ISSUED:    1585841  USEFUL:     252591  USELESS:     129086
L1I AVERAGE MISS LATENCY: 22.1565 cycles
L2C TOTAL     ACCESS:    2655402  HIT:    2400438  MISS:     254964
L2C LOAD      ACCESS:     520143  HIT:     438814  MISS:      81329
L2C RFO       ACCESS:      74989  HIT:      36740  MISS:      38249
L2C PREFETCH  ACCESS:    1806513  HIT:    1671592  MISS:     134921
L2C WRITEBACK ACCESS:     253757  HIT:     253292  MISS:        465
L2C PREFETCH  REQUESTED:    1820858  ISSUED:    1820747  USEFUL:      32607  USELESS:     102321
L2C AVERAGE MISS LATENCY: 65.8953 cycles
LLC TOTAL     ACCESS:     648029  HIT:     574011  MISS:      74018
LLC LOAD      ACCESS:      81157  HIT:      72305  MISS:       8852
LLC RFO       ACCESS:      38246  HIT:      17619  MISS:      20627
LLC PREFETCH  ACCESS:     436924  HIT:     393335  MISS:      43589
LLC WRITEBACK ACCESS:      91702  HIT:      90752  MISS:        950
LLC PREFETCH  REQUESTED:          0  ISSUED:          0  USEFUL:      10257  USELESS:      36899
LLC AVERAGE MISS LATENCY: 189.346 cycles
Major fault: 0 Minor fault: 6868
I-Shadow cache 408 bytes
Touched + WorthPF tables 24576 bytes 
MMA filter 174 bytes 
FNL filter 272 bytes 
TOTAL PREFETCHER STORAGE SIZE: 98134 bytes
CPU 0 L1I next line prefetcher final stats
CPU 0 L1D next line prefetcher final stats

DRAM Statistics
 CHANNEL 0
 RQ ROW_BUFFER_HIT:      19901  ROW_BUFFER_MISS:      53161
 DBUS_CONGESTED:      42579
 WQ ROW_BUFFER_HIT:       3995  ROW_BUFFER_MISS:      23872  FULL:          0

 AVG_CONGESTED_CYCLE: 6

CPU 0 Branch Prediction Accuracy: 95.8872% MPKI: 9.67286 Average ROB Occupancy at Mispredict: 66.9204

Branch types
NOT_BRANCH: 38240102 76.4802%
BRANCH_DIRECT_JUMP: 653296 1.30659%
BRANCH_INDIRECT: 37098 0.074196%
BRANCH_CONDITIONAL: 8897819 17.7956%
BRANCH_DIRECT_CALL: 992620 1.98524%
BRANCH_INDIRECT_CALL: 93046 0.186092%
BRANCH_RETURN: 1085674 2.17135%
BRANCH_OTHER: 0 0%

