Initialize SIGNATURE TABLE
ST_SET: 1
ST_WAY: 256
ST_TAG_BIT: 16
ST_TAG_MASK: ffff

Initialize PATTERN TABLE
PT_SET: 512
PT_WAY: 4
SIG_DELTA_BIT: 7
C_SIG_BIT: 4
C_DELTA_BIT: 4

Initialize PREFETCH FILTER
FILTER_SET: 1024

*** ChampSim Multicore Out-of-Order Simulator ***

Warmup Instructions: 50000000
Simulation Instructions: 50000000
Number of CPUs: 1
LLC sets: 2048
LLC ways: 16
Off-chip DRAM Size: 4096 MB Channels: 1 Width: 64-bit Data Rate: 3200 MT/s

CPU 0 runs /Users/gandhardeshpande/Desktop/CSE240C/HW1/ChampSim/ipc1_public/client_001.champsimtrace.xz
CPU 0 L1D next line prefetcher
Heartbeat CPU 0 instructions: 10000003 cycles: 3410385 heartbeat IPC: 2.93222 cumulative IPC: 2.93222 (Simulation time: 0 hr 0 min 24 sec) 
Heartbeat CPU 0 instructions: 20000001 cycles: 7118703 heartbeat IPC: 2.69664 cumulative IPC: 2.8095 (Simulation time: 0 hr 0 min 49 sec) 
Heartbeat CPU 0 instructions: 30000001 cycles: 10481419 heartbeat IPC: 2.97379 cumulative IPC: 2.86221 (Simulation time: 0 hr 1 min 11 sec) 
Heartbeat CPU 0 instructions: 40000003 cycles: 14351133 heartbeat IPC: 2.58417 cumulative IPC: 2.78724 (Simulation time: 0 hr 1 min 36 sec) 
Heartbeat CPU 0 instructions: 50000003 cycles: 17648068 heartbeat IPC: 3.03312 cumulative IPC: 2.83317 (Simulation time: 0 hr 1 min 57 sec) 

Warmup complete CPU 0 instructions: 50000003 cycles: 17648068 (Simulation time: 0 hr 1 min 57 sec) 

Heartbeat CPU 0 instructions: 60000000 cycles: 26670403 heartbeat IPC: 1.10836 cumulative IPC: 1.10836 (Simulation time: 0 hr 2 min 25 sec) 
Heartbeat CPU 0 instructions: 70000000 cycles: 32974944 heartbeat IPC: 1.58616 cumulative IPC: 1.3049 (Simulation time: 0 hr 2 min 45 sec) 
Heartbeat CPU 0 instructions: 80000002 cycles: 42310097 heartbeat IPC: 1.07122 cumulative IPC: 1.21644 (Simulation time: 0 hr 3 min 21 sec) 
Heartbeat CPU 0 instructions: 90000000 cycles: 48462079 heartbeat IPC: 1.62549 cumulative IPC: 1.29811 (Simulation time: 0 hr 3 min 38 sec) 
Heartbeat CPU 0 instructions: 100000002 cycles: 57325930 heartbeat IPC: 1.12818 cumulative IPC: 1.26015 (Simulation time: 0 hr 4 min 11 sec) 
Finished CPU 0 instructions: 50000003 cycles: 39677863 cumulative IPC: 1.26015 (Simulation time: 0 hr 4 min 11 sec) 

ChampSim completed all CPUs

Region of Interest Statistics

CPU 0 cumulative IPC: 1.26015 instructions: 50000003 cycles: 39677863
L1D TOTAL     ACCESS:   21233122  HIT:   20396710  MISS:     836412
L1D LOAD      ACCESS:    8818262  HIT:    8423512  MISS:     394750
L1D RFO       ACCESS:    4039701  HIT:    3980636  MISS:      59065
L1D PREFETCH  ACCESS:    8375159  HIT:    7992562  MISS:     382597
L1D WRITEBACK ACCESS:          0  HIT:          0  MISS:          0
L1D PREFETCH  REQUESTED:    8863902  ISSUED:    8554127  USEFUL:     129595  USELESS:     252976
L1D AVERAGE MISS LATENCY: 47.6005 cycles
L1I TOTAL     ACCESS:    9428195  HIT:    9022125  MISS:     406070
L1I LOAD      ACCESS:    8921331  HIT:    8907322  MISS:      14009
L1I RFO       ACCESS:          0  HIT:          0  MISS:          0
L1I PREFETCH  ACCESS:     506864  HIT:     114803  MISS:     392061
L1I WRITEBACK ACCESS:          0  HIT:          0  MISS:          0
L1I PREFETCH  REQUESTED:     555636  ISSUED:     555636  USEFUL:     297696  USELESS:      94388
L1I AVERAGE MISS LATENCY: 21.4595 cycles
L2C TOTAL     ACCESS:    1908298  HIT:    1601481  MISS:     306817
L2C LOAD      ACCESS:     381917  HIT:     268852  MISS:     113065
L2C RFO       ACCESS:      58301  HIT:      21069  MISS:      37232
L2C PREFETCH  ACCESS:    1278498  HIT:    1122191  MISS:     156307
L2C WRITEBACK ACCESS:     189582  HIT:     189369  MISS:        213
L2C PREFETCH  REQUESTED:    1471125  ISSUED:    1467048  USEFUL:      13695  USELESS:     141614
L2C AVERAGE MISS LATENCY: 104.764 cycles
LLC TOTAL     ACCESS:     803309  HIT:     606358  MISS:     196951
LLC LOAD      ACCESS:     112736  HIT:      71132  MISS:      41604
LLC RFO       ACCESS:      37231  HIT:       9074  MISS:      28157
LLC PREFETCH  ACCESS:     546819  HIT:     420235  MISS:     126584
LLC WRITEBACK ACCESS:     106523  HIT:     105917  MISS:        606
LLC PREFETCH  REQUESTED:          0  ISSUED:          0  USEFUL:      28634  USELESS:      99884
LLC AVERAGE MISS LATENCY: 188.223 cycles
Major fault: 0 Minor fault: 3433
CPU 0 L1D next line prefetcher final stats

DRAM Statistics
 CHANNEL 0
 RQ ROW_BUFFER_HIT:      47985  ROW_BUFFER_MISS:     148356
 DBUS_CONGESTED:     117635
 WQ ROW_BUFFER_HIT:      15896  ROW_BUFFER_MISS:      65021  FULL:          0

 AVG_CONGESTED_CYCLE: 5

CPU 0 Branch Prediction Accuracy: 97.9037% MPKI: 3.63418 Average ROB Occupancy at Mispredict: 86.9053

Branch types
NOT_BRANCH: 41331383 82.6628%
BRANCH_DIRECT_JUMP: 455615 0.91123%
BRANCH_INDIRECT: 20390 0.04078%
BRANCH_CONDITIONAL: 6745374 13.4907%
BRANCH_DIRECT_CALL: 494532 0.989064%
BRANCH_INDIRECT_CALL: 228815 0.45763%
BRANCH_RETURN: 723560 1.44712%
BRANCH_OTHER: 0 0%

