Initialize SIGNATURE TABLE
ST_SET: 1
ST_WAY: 256
ST_TAG_BIT: 16
ST_TAG_MASK: ffff

Initialize PATTERN TABLE
PT_SET: 512
PT_WAY: 4
SIG_DELTA_BIT: 7
C_SIG_BIT: 4
C_DELTA_BIT: 4

Initialize PREFETCH FILTER
FILTER_SET: 1024

*** ChampSim Multicore Out-of-Order Simulator ***

Warmup Instructions: 50000000
Simulation Instructions: 50000000
Number of CPUs: 1
LLC sets: 2048
LLC ways: 16
Off-chip DRAM Size: 4096 MB Channels: 1 Width: 64-bit Data Rate: 3200 MT/s

CPU 0 runs /Users/gandhardeshpande/Desktop/CSE240C/HW1/ChampSim/ipc1_public/server_036.champsimtrace.xz
CPU 0 L1D next line prefetcher
Heartbeat CPU 0 instructions: 10000000 cycles: 3459042 heartbeat IPC: 2.89097 cumulative IPC: 2.89097 (Simulation time: 0 hr 0 min 25 sec) 
Heartbeat CPU 0 instructions: 20000000 cycles: 6924836 heartbeat IPC: 2.88534 cumulative IPC: 2.88815 (Simulation time: 0 hr 0 min 51 sec) 
Heartbeat CPU 0 instructions: 30000003 cycles: 10433315 heartbeat IPC: 2.85024 cumulative IPC: 2.8754 (Simulation time: 0 hr 1 min 16 sec) 
Heartbeat CPU 0 instructions: 40000000 cycles: 13895816 heartbeat IPC: 2.88808 cumulative IPC: 2.87856 (Simulation time: 0 hr 1 min 43 sec) 
Heartbeat CPU 0 instructions: 50000002 cycles: 17357524 heartbeat IPC: 2.88875 cumulative IPC: 2.8806 (Simulation time: 0 hr 2 min 10 sec) 

Warmup complete CPU 0 instructions: 50000002 cycles: 17357524 (Simulation time: 0 hr 2 min 10 sec) 

Heartbeat CPU 0 instructions: 60000002 cycles: 22999718 heartbeat IPC: 1.77236 cumulative IPC: 1.77236 (Simulation time: 0 hr 2 min 34 sec) 
Heartbeat CPU 0 instructions: 70000001 cycles: 28607665 heartbeat IPC: 1.78318 cumulative IPC: 1.77776 (Simulation time: 0 hr 2 min 59 sec) 
Heartbeat CPU 0 instructions: 80000001 cycles: 34234339 heartbeat IPC: 1.77725 cumulative IPC: 1.77759 (Simulation time: 0 hr 3 min 25 sec) 
Heartbeat CPU 0 instructions: 90000002 cycles: 39831369 heartbeat IPC: 1.78666 cumulative IPC: 1.77985 (Simulation time: 0 hr 3 min 50 sec) 
Heartbeat CPU 0 instructions: 100000000 cycles: 45431259 heartbeat IPC: 1.78575 cumulative IPC: 1.78102 (Simulation time: 0 hr 4 min 15 sec) 
Finished CPU 0 instructions: 50000002 cycles: 28073738 cumulative IPC: 1.78102 (Simulation time: 0 hr 4 min 15 sec) 

ChampSim completed all CPUs

Region of Interest Statistics

CPU 0 cumulative IPC: 1.78102 instructions: 50000002 cycles: 28073738
L1D TOTAL     ACCESS:   20620323  HIT:   20560370  MISS:      59953
L1D LOAD      ACCESS:    6738785  HIT:    6704083  MISS:      34702
L1D RFO       ACCESS:    7347183  HIT:    7339983  MISS:       7200
L1D PREFETCH  ACCESS:    6534355  HIT:    6516304  MISS:      18051
L1D WRITEBACK ACCESS:          0  HIT:          0  MISS:          0
L1D PREFETCH  REQUESTED:    6739725  ISSUED:    6566652  USEFUL:       5457  USELESS:      12595
L1D AVERAGE MISS LATENCY: 17.8393 cycles
L1I TOTAL     ACCESS:   14470902  HIT:   10088184  MISS:    4382718
L1I LOAD      ACCESS:    8893189  HIT:    8701711  MISS:     191478
L1I RFO       ACCESS:          0  HIT:          0  MISS:          0
L1I PREFETCH  ACCESS:    5577713  HIT:    1386473  MISS:    4191240
L1I WRITEBACK ACCESS:          0  HIT:          0  MISS:          0
L1I PREFETCH  REQUESTED:    6261452  ISSUED:    6261452  USEFUL:    3656307  USELESS:     534946
L1I AVERAGE MISS LATENCY: 14.3587 cycles
L2C TOTAL     ACCESS:    5998065  HIT:    5995758  MISS:       2307
L2C LOAD      ACCESS:     142132  HIT:     141732  MISS:        400
L2C RFO       ACCESS:       7192  HIT:       7140  MISS:         52
L2C PREFETCH  ACCESS:    5833144  HIT:    5831301  MISS:       1843
L2C WRITEBACK ACCESS:      15597  HIT:      15585  MISS:         12
L2C PREFETCH  REQUESTED:    3750192  ISSUED:    3749261  USEFUL:        144  USELESS:        971
L2C AVERAGE MISS LATENCY: 158.53 cycles
LLC TOTAL     ACCESS:     865884  HIT:     862398  MISS:       3486
LLC LOAD      ACCESS:        400  HIT:        136  MISS:        264
LLC RFO       ACCESS:         52  HIT:         22  MISS:         30
LLC PREFETCH  ACCESS:     864519  HIT:     861331  MISS:       3188
LLC WRITEBACK ACCESS:        913  HIT:        909  MISS:          4
LLC PREFETCH  REQUESTED:          0  ISSUED:          0  USEFUL:         64  USELESS:        937
LLC AVERAGE MISS LATENCY: 279.084 cycles
Major fault: 0 Minor fault: 1926
CPU 0 L1D next line prefetcher final stats

DRAM Statistics
 CHANNEL 0
 RQ ROW_BUFFER_HIT:        628  ROW_BUFFER_MISS:       2854
 DBUS_CONGESTED:       1672
 WQ ROW_BUFFER_HIT:        278  ROW_BUFFER_MISS:       1906  FULL:          0

 AVG_CONGESTED_CYCLE: 6

CPU 0 Branch Prediction Accuracy: 99.8717% MPKI: 0.21174 Average ROB Occupancy at Mispredict: 221.846

Branch types
NOT_BRANCH: 41748451 83.4969%
BRANCH_DIRECT_JUMP: 468564 0.937128%
BRANCH_INDIRECT: 0 0%
BRANCH_CONDITIONAL: 5599756 11.1995%
BRANCH_DIRECT_CALL: 885106 1.77021%
BRANCH_INDIRECT_CALL: 206338 0.412676%
BRANCH_RETURN: 1091469 2.18294%
BRANCH_OTHER: 0 0%

