
*** ChampSim Multicore Out-of-Order Simulator ***

Warmup Instructions: 10000000
Simulation Instructions: 100000000
Configuration: 2
Number of CPUs: 1
LLC sets: 2048
LLC ways: 16
Off-chip DRAM Channels: 1 Width: 64-bit Data Rate: 1600 MT/s

CPU 0 runs /datasets/cs240c-wi22-a00-public/data/Assignment2-gz/cactusADM_1039B.trace.gz
CPU 0 L1D next line prefetcher
CPU 0 L2C IP-based stride prefetcher
Heartbeat CPU 0 instructions: 1000000 cycles: 595518 heartbeat IPC: 1.67921 cumulative IPC: 1.67921 (Simulation time: 0 hr 0 min 32 sec) 
select_counter is 524
Heartbeat CPU 0 instructions: 2000002 cycles: 1190937 heartbeat IPC: 1.67949 cumulative IPC: 1.67935 (Simulation time: 0 hr 1 min 4 sec) 
select_counter is 525
Heartbeat CPU 0 instructions: 3000003 cycles: 1786622 heartbeat IPC: 1.67874 cumulative IPC: 1.67915 (Simulation time: 0 hr 1 min 36 sec) 
select_counter is 513
Heartbeat CPU 0 instructions: 4000000 cycles: 2382046 heartbeat IPC: 1.67947 cumulative IPC: 1.67923 (Simulation time: 0 hr 2 min 10 sec) 
select_counter is 508
Heartbeat CPU 0 instructions: 5000001 cycles: 2977457 heartbeat IPC: 1.67951 cumulative IPC: 1.67929 (Simulation time: 0 hr 2 min 42 sec) 
select_counter is 516
Heartbeat CPU 0 instructions: 6000002 cycles: 3572930 heartbeat IPC: 1.67934 cumulative IPC: 1.67929 (Simulation time: 0 hr 3 min 15 sec) 
select_counter is 518
Heartbeat CPU 0 instructions: 7000000 cycles: 4168306 heartbeat IPC: 1.67961 cumulative IPC: 1.67934 (Simulation time: 0 hr 3 min 49 sec) 
select_counter is 530
Heartbeat CPU 0 instructions: 8000000 cycles: 4763681 heartbeat IPC: 1.67961 cumulative IPC: 1.67937 (Simulation time: 0 hr 4 min 22 sec) 
select_counter is 539
Heartbeat CPU 0 instructions: 9000002 cycles: 5359336 heartbeat IPC: 1.67883 cumulative IPC: 1.67931 (Simulation time: 0 hr 4 min 57 sec) 
select_counter is 542
Heartbeat CPU 0 instructions: 10000003 cycles: 5974113 heartbeat IPC: 1.62661 cumulative IPC: 1.67389 (Simulation time: 0 hr 5 min 31 sec) 
select_counter is 562

Warmup complete CPU 0 instructions: 10000003 cycles: 5974113 (Simulation time: 0 hr 5 min 31 sec) 

Heartbeat CPU 0 instructions: 11000003 cycles: 12115531 heartbeat IPC: 0.162829 cumulative IPC: 0.162829 (Simulation time: 0 hr 6 min 13 sec) 
select_counter is 655
Heartbeat CPU 0 instructions: 12000000 cycles: 13857969 heartbeat IPC: 0.573907 cumulative IPC: 0.253683 (Simulation time: 0 hr 6 min 49 sec) 
select_counter is 658
Heartbeat CPU 0 instructions: 13000002 cycles: 15526053 heartbeat IPC: 0.599491 cumulative IPC: 0.314072 (Simulation time: 0 hr 7 min 26 sec) 
select_counter is 670
Heartbeat CPU 0 instructions: 14000001 cycles: 17233994 heartbeat IPC: 0.5855 cumulative IPC: 0.355243 (Simulation time: 0 hr 8 min 3 sec) 
select_counter is 691
Heartbeat CPU 0 instructions: 15000002 cycles: 18977720 heartbeat IPC: 0.573485 cumulative IPC: 0.384509 (Simulation time: 0 hr 8 min 41 sec) 
select_counter is 713
Heartbeat CPU 0 instructions: 16000000 cycles: 20724251 heartbeat IPC: 0.572562 cumulative IPC: 0.406776 (Simulation time: 0 hr 9 min 18 sec) 
select_counter is 715
Heartbeat CPU 0 instructions: 17000003 cycles: 22448305 heartbeat IPC: 0.58003 cumulative IPC: 0.424907 (Simulation time: 0 hr 9 min 55 sec) 
select_counter is 733
Heartbeat CPU 0 instructions: 18000002 cycles: 24102765 heartbeat IPC: 0.604426 cumulative IPC: 0.44129 (Simulation time: 0 hr 10 min 30 sec) 
select_counter is 759
Heartbeat CPU 0 instructions: 19000003 cycles: 25839199 heartbeat IPC: 0.575893 cumulative IPC: 0.453056 (Simulation time: 0 hr 11 min 8 sec) 
select_counter is 784
Heartbeat CPU 0 instructions: 20000000 cycles: 27582766 heartbeat IPC: 0.573535 cumulative IPC: 0.462777 (Simulation time: 0 hr 11 min 42 sec) 
select_counter is 801
Heartbeat CPU 0 instructions: 21000002 cycles: 29326377 heartbeat IPC: 0.573524 cumulative IPC: 0.471046 (Simulation time: 0 hr 12 min 17 sec) 
select_counter is 836
Heartbeat CPU 0 instructions: 22000003 cycles: 31016839 heartbeat IPC: 0.591555 cumulative IPC: 0.479181 (Simulation time: 0 hr 12 min 53 sec) 
select_counter is 852
Heartbeat CPU 0 instructions: 23000001 cycles: 32701621 heartbeat IPC: 0.593547 cumulative IPC: 0.48639 (Simulation time: 0 hr 13 min 30 sec) 
select_counter is 877
Heartbeat CPU 0 instructions: 24000000 cycles: 39498241 heartbeat IPC: 0.147132 cumulative IPC: 0.41761 (Simulation time: 0 hr 14 min 16 sec) 
select_counter is 853
Heartbeat CPU 0 instructions: 25000002 cycles: 41239172 heartbeat IPC: 0.574406 cumulative IPC: 0.42535 (Simulation time: 0 hr 14 min 52 sec) 
select_counter is 855
Heartbeat CPU 0 instructions: 26000002 cycles: 42966659 heartbeat IPC: 0.578876 cumulative IPC: 0.43252 (Simulation time: 0 hr 15 min 29 sec) 
select_counter is 855
Heartbeat CPU 0 instructions: 27000002 cycles: 44634556 heartbeat IPC: 0.599557 cumulative IPC: 0.439726 (Simulation time: 0 hr 16 min 5 sec) 
select_counter is 855
Heartbeat CPU 0 instructions: 28000000 cycles: 46367978 heartbeat IPC: 0.576892 cumulative IPC: 0.445612 (Simulation time: 0 hr 16 min 41 sec) 
select_counter is 846
Heartbeat CPU 0 instructions: 29000000 cycles: 48111274 heartbeat IPC: 0.573626 cumulative IPC: 0.450908 (Simulation time: 0 hr 17 min 19 sec) 
select_counter is 857
Heartbeat CPU 0 instructions: 30000003 cycles: 49851958 heartbeat IPC: 0.574489 cumulative IPC: 0.455811 (Simulation time: 0 hr 17 min 55 sec) 
select_counter is 855
Heartbeat CPU 0 instructions: 31000001 cycles: 51550116 heartbeat IPC: 0.588872 cumulative IPC: 0.460769 (Simulation time: 0 hr 18 min 32 sec) 
select_counter is 862
Heartbeat CPU 0 instructions: 32000000 cycles: 53227977 heartbeat IPC: 0.595996 cumulative IPC: 0.46557 (Simulation time: 0 hr 19 min 10 sec) 
select_counter is 874
Heartbeat CPU 0 instructions: 33000001 cycles: 54967946 heartbeat IPC: 0.574723 cumulative IPC: 0.469447 (Simulation time: 0 hr 19 min 48 sec) 
select_counter is 896
Heartbeat CPU 0 instructions: 34000000 cycles: 56710216 heartbeat IPC: 0.573963 cumulative IPC: 0.473036 (Simulation time: 0 hr 20 min 25 sec) 
select_counter is 925
Heartbeat CPU 0 instructions: 35000001 cycles: 58447472 heartbeat IPC: 0.575621 cumulative IPC: 0.476432 (Simulation time: 0 hr 21 min 2 sec) 
select_counter is 933
Heartbeat CPU 0 instructions: 36000000 cycles: 60112667 heartbeat IPC: 0.60053 cumulative IPC: 0.480249 (Simulation time: 0 hr 21 min 39 sec) 
select_counter is 951
Heartbeat CPU 0 instructions: 37000002 cycles: 66837794 heartbeat IPC: 0.148696 cumulative IPC: 0.443614 (Simulation time: 0 hr 22 min 24 sec) 
select_counter is 958
Heartbeat CPU 0 instructions: 38000001 cycles: 68580852 heartbeat IPC: 0.573704 cumulative IPC: 0.447236 (Simulation time: 0 hr 23 min 1 sec) 
select_counter is 944
Heartbeat CPU 0 instructions: 39000002 cycles: 70325363 heartbeat IPC: 0.573227 cumulative IPC: 0.450652 (Simulation time: 0 hr 23 min 38 sec) 
select_counter is 942
Heartbeat CPU 0 instructions: 40000000 cycles: 72025769 heartbeat IPC: 0.588094 cumulative IPC: 0.45419 (Simulation time: 0 hr 24 min 16 sec) 
select_counter is 936
Heartbeat CPU 0 instructions: 41000003 cycles: 73699500 heartbeat IPC: 0.597469 cumulative IPC: 0.457731 (Simulation time: 0 hr 24 min 53 sec) 
select_counter is 940
Heartbeat CPU 0 instructions: 42000000 cycles: 75439302 heartbeat IPC: 0.574776 cumulative IPC: 0.460662 (Simulation time: 0 hr 25 min 29 sec) 
select_counter is 941
Heartbeat CPU 0 instructions: 43000000 cycles: 77183835 heartbeat IPC: 0.573219 cumulative IPC: 0.46342 (Simulation time: 0 hr 26 min 7 sec) 
select_counter is 933
Heartbeat CPU 0 instructions: 44000000 cycles: 78923220 heartbeat IPC: 0.574916 cumulative IPC: 0.466078 (Simulation time: 0 hr 26 min 44 sec) 
select_counter is 936
Heartbeat CPU 0 instructions: 45000000 cycles: 80594114 heartbeat IPC: 0.598482 cumulative IPC: 0.469043 (Simulation time: 0 hr 27 min 21 sec) 
select_counter is 947
Heartbeat CPU 0 instructions: 46000003 cycles: 82300514 heartbeat IPC: 0.586031 cumulative IPC: 0.471659 (Simulation time: 0 hr 27 min 59 sec) 
select_counter is 959
Heartbeat CPU 0 instructions: 47000001 cycles: 84043468 heartbeat IPC: 0.573737 cumulative IPC: 0.473938 (Simulation time: 0 hr 28 min 34 sec) 
select_counter is 986
Heartbeat CPU 0 instructions: 48000000 cycles: 85785967 heartbeat IPC: 0.573888 cumulative IPC: 0.47612 (Simulation time: 0 hr 29 min 11 sec) 
select_counter is 995
Heartbeat CPU 0 instructions: 49000001 cycles: 87512408 heartbeat IPC: 0.579227 cumulative IPC: 0.478303 (Simulation time: 0 hr 29 min 46 sec) 
select_counter is 1015
Heartbeat CPU 0 instructions: 50000000 cycles: 94282659 heartbeat IPC: 0.147705 cumulative IPC: 0.452957 (Simulation time: 0 hr 30 min 33 sec) 
select_counter is 993
Heartbeat CPU 0 instructions: 51000003 cycles: 96049006 heartbeat IPC: 0.566142 cumulative IPC: 0.455177 (Simulation time: 0 hr 31 min 10 sec) 
select_counter is 995
Heartbeat CPU 0 instructions: 52000000 cycles: 97822874 heartbeat IPC: 0.563738 cumulative IPC: 0.457273 (Simulation time: 0 hr 31 min 47 sec) 
select_counter is 1003
Heartbeat CPU 0 instructions: 53000003 cycles: 99594564 heartbeat IPC: 0.564435 cumulative IPC: 0.459301 (Simulation time: 0 hr 32 min 22 sec) 
select_counter is 995
Heartbeat CPU 0 instructions: 54000002 cycles: 101311719 heartbeat IPC: 0.582358 cumulative IPC: 0.461518 (Simulation time: 0 hr 33 min 0 sec) 
select_counter is 984
Heartbeat CPU 0 instructions: 55000001 cycles: 103038442 heartbeat IPC: 0.579131 cumulative IPC: 0.46361 (Simulation time: 0 hr 33 min 36 sec) 
select_counter is 981
Heartbeat CPU 0 instructions: 56000000 cycles: 104809617 heartbeat IPC: 0.564596 cumulative IPC: 0.46542 (Simulation time: 0 hr 34 min 13 sec) 
select_counter is 978
Heartbeat CPU 0 instructions: 57000000 cycles: 106584186 heartbeat IPC: 0.563517 cumulative IPC: 0.46715 (Simulation time: 0 hr 34 min 48 sec) 
select_counter is 983
Heartbeat CPU 0 instructions: 58000000 cycles: 108349605 heartbeat IPC: 0.566438 cumulative IPC: 0.468862 (Simulation time: 0 hr 35 min 25 sec) 
select_counter is 987
Heartbeat CPU 0 instructions: 59000002 cycles: 110037667 heartbeat IPC: 0.592396 cumulative IPC: 0.470866 (Simulation time: 0 hr 36 min 0 sec) 
select_counter is 988
Heartbeat CPU 0 instructions: 60000000 cycles: 111797258 heartbeat IPC: 0.568313 cumulative IPC: 0.472486 (Simulation time: 0 hr 36 min 35 sec) 
select_counter is 1010
Heartbeat CPU 0 instructions: 61000001 cycles: 113572030 heartbeat IPC: 0.563453 cumulative IPC: 0.473987 (Simulation time: 0 hr 37 min 10 sec) 
select_counter is 1021
Heartbeat CPU 0 instructions: 62000000 cycles: 115344989 heartbeat IPC: 0.564028 cumulative IPC: 0.475446 (Simulation time: 0 hr 37 min 46 sec) 
select_counter is 1021
Heartbeat CPU 0 instructions: 63000001 cycles: 121673531 heartbeat IPC: 0.158014 cumulative IPC: 0.458084 (Simulation time: 0 hr 38 min 29 sec) 
select_counter is 994
Heartbeat CPU 0 instructions: 64000000 cycles: 123955419 heartbeat IPC: 0.438233 cumulative IPC: 0.4577 (Simulation time: 0 hr 39 min 4 sec) 
select_counter is 1011
Heartbeat CPU 0 instructions: 65000002 cycles: 125727396 heartbeat IPC: 0.564343 cumulative IPC: 0.459278 (Simulation time: 0 hr 39 min 39 sec) 
select_counter is 1000
Heartbeat CPU 0 instructions: 66000001 cycles: 127500225 heartbeat IPC: 0.56407 cumulative IPC: 0.460806 (Simulation time: 0 hr 40 min 15 sec) 
select_counter is 990
Heartbeat CPU 0 instructions: 67000003 cycles: 129266586 heartbeat IPC: 0.566137 cumulative IPC: 0.462315 (Simulation time: 0 hr 40 min 49 sec) 
select_counter is 982
Heartbeat CPU 0 instructions: 68000000 cycles: 130994654 heartbeat IPC: 0.578679 cumulative IPC: 0.463924 (Simulation time: 0 hr 41 min 22 sec) 
select_counter is 986
Heartbeat CPU 0 instructions: 69000003 cycles: 132773316 heartbeat IPC: 0.562222 cumulative IPC: 0.465303 (Simulation time: 0 hr 41 min 58 sec) 
select_counter is 980
Heartbeat CPU 0 instructions: 70000002 cycles: 134545726 heartbeat IPC: 0.564203 cumulative IPC: 0.466666 (Simulation time: 0 hr 42 min 29 sec) 
select_counter is 982
Heartbeat CPU 0 instructions: 71000000 cycles: 136318084 heartbeat IPC: 0.564219 cumulative IPC: 0.467992 (Simulation time: 0 hr 43 min 1 sec) 
select_counter is 974
Heartbeat CPU 0 instructions: 72000000 cycles: 138065631 heartbeat IPC: 0.572231 cumulative IPC: 0.469372 (Simulation time: 0 hr 43 min 33 sec) 
select_counter is 975
Heartbeat CPU 0 instructions: 73000001 cycles: 139766262 heartbeat IPC: 0.588018 cumulative IPC: 0.47088 (Simulation time: 0 hr 44 min 5 sec) 
select_counter is 1002
Heartbeat CPU 0 instructions: 74000003 cycles: 141534330 heartbeat IPC: 0.56559 cumulative IPC: 0.472115 (Simulation time: 0 hr 44 min 37 sec) 
select_counter is 1010
Heartbeat CPU 0 instructions: 75000002 cycles: 143308397 heartbeat IPC: 0.563676 cumulative IPC: 0.473298 (Simulation time: 0 hr 45 min 7 sec) 
select_counter is 1022
Heartbeat CPU 0 instructions: 76000000 cycles: 148673605 heartbeat IPC: 0.186386 cumulative IPC: 0.46251 (Simulation time: 0 hr 45 min 40 sec) 
select_counter is 901
Heartbeat CPU 0 instructions: 77000001 cycles: 151878814 heartbeat IPC: 0.311992 cumulative IPC: 0.459204 (Simulation time: 0 hr 46 min 11 sec) 
select_counter is 787
Heartbeat CPU 0 instructions: 78000000 cycles: 153629167 heartbeat IPC: 0.571313 cumulative IPC: 0.460533 (Simulation time: 0 hr 46 min 37 sec) 
select_counter is 787
Heartbeat CPU 0 instructions: 79000002 cycles: 155399494 heartbeat IPC: 0.564869 cumulative IPC: 0.461769 (Simulation time: 0 hr 47 min 4 sec) 
select_counter is 767
Heartbeat CPU 0 instructions: 80000000 cycles: 157170323 heartbeat IPC: 0.564706 cumulative IPC: 0.462975 (Simulation time: 0 hr 47 min 31 sec) 
select_counter is 758
Heartbeat CPU 0 instructions: 81000002 cycles: 158920429 heartbeat IPC: 0.571395 cumulative IPC: 0.464215 (Simulation time: 0 hr 47 min 56 sec) 
select_counter is 749
Heartbeat CPU 0 instructions: 82000002 cycles: 160616730 heartbeat IPC: 0.589518 cumulative IPC: 0.46559 (Simulation time: 0 hr 48 min 19 sec) 
select_counter is 736
Heartbeat CPU 0 instructions: 83000003 cycles: 162384309 heartbeat IPC: 0.565746 cumulative IPC: 0.466722 (Simulation time: 0 hr 48 min 42 sec) 
select_counter is 727
Heartbeat CPU 0 instructions: 84000000 cycles: 164156514 heartbeat IPC: 0.564267 cumulative IPC: 0.467814 (Simulation time: 0 hr 49 min 4 sec) 
select_counter is 710
Heartbeat CPU 0 instructions: 85000002 cycles: 165928784 heartbeat IPC: 0.564249 cumulative IPC: 0.468883 (Simulation time: 0 hr 49 min 23 sec) 
select_counter is 703
Heartbeat CPU 0 instructions: 86000003 cycles: 167645933 heartbeat IPC: 0.582361 cumulative IPC: 0.470088 (Simulation time: 0 hr 49 min 43 sec) 
select_counter is 704
Heartbeat CPU 0 instructions: 87000000 cycles: 169390813 heartbeat IPC: 0.573104 cumulative IPC: 0.471188 (Simulation time: 0 hr 50 min 3 sec) 
select_counter is 715
Heartbeat CPU 0 instructions: 88000000 cycles: 171161045 heartbeat IPC: 0.564898 cumulative IPC: 0.472192 (Simulation time: 0 hr 50 min 22 sec) 
select_counter is 720
Heartbeat CPU 0 instructions: 89000001 cycles: 175563019 heartbeat IPC: 0.227171 cumulative IPC: 0.465832 (Simulation time: 0 hr 50 min 43 sec) 
select_counter is 619
Heartbeat CPU 0 instructions: 90000002 cycles: 179737188 heartbeat IPC: 0.239569 cumulative IPC: 0.460397 (Simulation time: 0 hr 51 min 3 sec) 
select_counter is 554
Heartbeat CPU 0 instructions: 91000000 cycles: 181431787 heartbeat IPC: 0.590109 cumulative IPC: 0.46165 (Simulation time: 0 hr 51 min 21 sec) 
select_counter is 547
Heartbeat CPU 0 instructions: 92000000 cycles: 183195139 heartbeat IPC: 0.567102 cumulative IPC: 0.462699 (Simulation time: 0 hr 51 min 39 sec) 
select_counter is 534
Heartbeat CPU 0 instructions: 93000001 cycles: 184965106 heartbeat IPC: 0.564983 cumulative IPC: 0.46371 (Simulation time: 0 hr 51 min 57 sec) 
select_counter is 538
Heartbeat CPU 0 instructions: 94000003 cycles: 186738925 heartbeat IPC: 0.563757 cumulative IPC: 0.464692 (Simulation time: 0 hr 52 min 15 sec) 
select_counter is 528
Heartbeat CPU 0 instructions: 95000001 cycles: 188461472 heartbeat IPC: 0.580535 cumulative IPC: 0.465786 (Simulation time: 0 hr 52 min 31 sec) 
select_counter is 532
Heartbeat CPU 0 instructions: 96000000 cycles: 190182911 heartbeat IPC: 0.580909 cumulative IPC: 0.466862 (Simulation time: 0 hr 52 min 48 sec) 
select_counter is 525
Heartbeat CPU 0 instructions: 97000002 cycles: 191951842 heartbeat IPC: 0.565314 cumulative IPC: 0.467798 (Simulation time: 0 hr 53 min 3 sec) 
select_counter is 535
Heartbeat CPU 0 instructions: 98000000 cycles: 193726159 heartbeat IPC: 0.563596 cumulative IPC: 0.468703 (Simulation time: 0 hr 53 min 18 sec) 
select_counter is 537
Heartbeat CPU 0 instructions: 99000002 cycles: 195494900 heartbeat IPC: 0.565375 cumulative IPC: 0.469605 (Simulation time: 0 hr 53 min 32 sec) 
select_counter is 543
Heartbeat CPU 0 instructions: 100000000 cycles: 197186023 heartbeat IPC: 0.591322 cumulative IPC: 0.470682 (Simulation time: 0 hr 53 min 47 sec) 
select_counter is 544
Heartbeat CPU 0 instructions: 101000002 cycles: 198941725 heartbeat IPC: 0.569574 cumulative IPC: 0.471582 (Simulation time: 0 hr 54 min 0 sec) 
select_counter is 562
Heartbeat CPU 0 instructions: 102000000 cycles: 202311278 heartbeat IPC: 0.296775 cumulative IPC: 0.468582 (Simulation time: 0 hr 54 min 13 sec) 
select_counter is 516
Heartbeat CPU 0 instructions: 103000002 cycles: 207474411 heartbeat IPC: 0.193681 cumulative IPC: 0.461538 (Simulation time: 0 hr 54 min 27 sec) 
select_counter is 445
Heartbeat CPU 0 instructions: 104000000 cycles: 209198675 heartbeat IPC: 0.579956 cumulative IPC: 0.462543 (Simulation time: 0 hr 54 min 37 sec) 
select_counter is 442
Heartbeat CPU 0 instructions: 105000002 cycles: 210912607 heartbeat IPC: 0.583455 cumulative IPC: 0.463554 (Simulation time: 0 hr 54 min 46 sec) 
select_counter is 434
Heartbeat CPU 0 instructions: 106000001 cycles: 212681863 heartbeat IPC: 0.565209 cumulative IPC: 0.464424 (Simulation time: 0 hr 54 min 56 sec) 
select_counter is 446
Heartbeat CPU 0 instructions: 107000003 cycles: 214450740 heartbeat IPC: 0.565332 cumulative IPC: 0.46528 (Simulation time: 0 hr 55 min 5 sec) 
select_counter is 445
Heartbeat CPU 0 instructions: 108000000 cycles: 216218174 heartbeat IPC: 0.56579 cumulative IPC: 0.466125 (Simulation time: 0 hr 55 min 12 sec) 
select_counter is 433
Heartbeat CPU 0 instructions: 109000003 cycles: 217914558 heartbeat IPC: 0.589491 cumulative IPC: 0.467112 (Simulation time: 0 hr 55 min 19 sec) 
select_counter is 430
Heartbeat CPU 0 instructions: 110000002 cycles: 219662252 heartbeat IPC: 0.572182 cumulative IPC: 0.467972 (Simulation time: 0 hr 55 min 25 sec) 
select_counter is 438
Finished CPU 0 instructions: 100000003 cycles: 213688140 cummulative IPC: 0.467972 (Simulation time: 0 hr 55 min 25 sec) 

ChampSim completed all CPUs

Region of Interest Statistics

CPU 0 cummulative IPC: 0.467972 instructions: 100000003 cycles: 213688140
LLC TOTAL     ACCESS:    1174390  HIT:     339532  MISS:     834858
LLC LOAD      ACCESS:      30922  HIT:       1632  MISS:      29290
LLC RFO       ACCESS:     265309  HIT:       8075  MISS:     257234
LLC PREFETCH  ACCESS:     610821  HIT:     130667  MISS:     480154
LLC WRITEBACK ACCESS:     267338  HIT:     199158  MISS:      68180
Ship samples: size is 64
14, 39, 66, 98, 150, 162, 222, 239, 259, 292, 342, 383, 384, 421, 452, 498, 531, 563, 605, 633, 661, 696, 731, 746, 786, 803, 833, 867, 921, 942, 981, 1000, 1045, 1080, 1098, 1132, 1178, 1192, 1243, 1278, 1292, 1329, 1373, 1389, 1430, 1441, 1503, 1513, 1556, 1597, 1602, 1641, 1685, 1726, 1747, 1768, 1793, 1844, 1867, 1914, 1922, 1953, 1986, 2040, 
Ship duel samples: size is 32
14, 66, 150, 222, 259, 342, 384, 452, 531, 605, 661, 731, 786, 833, 921, 981, 1045, 1098, 1178, 1243, 1292, 1373, 1430, 1503, 1556, 1602, 1685, 1747, 1793, 1867, 1922, 1986, 
Lime duel samples: size is 32
1, 120, 154, 208, 275, 335, 416, 476, 569, 609, 678, 742, 827, 892, 911, 997, 1074, 1102, 1199, 1227, 1286, 1378, 1435, 1474, 1589, 1658, 1703, 1750, 1841, 1878, 1965, 2034, 
Lime samples: size is 15
1, 154, 275, 416, 569, 678, 827, 911, 1074, 1199, 1286, 1435, 1589, 1703, 1841, 
Insertion Distribution: 
	LOAD 0 0 0 0 0 0 404 2155 
	RFO 5477 0 0 0 0 0 1327 15290 
	PREF 0 3201 0 0 0 0 9696 33103 
	WRITEBACK 0 0 0 0 0 0 0 13606 
Total Prefetch Downgrades: 1241
