
*** ChampSim Multicore Out-of-Order Simulator ***

Warmup Instructions: 10000000
Simulation Instructions: 100000000
Configuration: 2
Number of CPUs: 1
LLC sets: 2048
LLC ways: 16
Off-chip DRAM Channels: 1 Width: 64-bit Data Rate: 1600 MT/s

CPU 0 runs /datasets/cs240c-wi22-a00-public/data/Assignment2-gz/wrf_1212B.trace.gz
CPU 0 L1D next line prefetcher
CPU 0 L2C IP-based stride prefetcher
Heartbeat CPU 0 instructions: 1000001 cycles: 598660 heartbeat IPC: 1.6704 cumulative IPC: 1.6704 (Simulation time: 0 hr 0 min 30 sec) 
select_counter is 511
Heartbeat CPU 0 instructions: 2000000 cycles: 1197118 heartbeat IPC: 1.67096 cumulative IPC: 1.67068 (Simulation time: 0 hr 0 min 59 sec) 
select_counter is 514
Heartbeat CPU 0 instructions: 3000001 cycles: 1795976 heartbeat IPC: 1.66985 cumulative IPC: 1.6704 (Simulation time: 0 hr 1 min 29 sec) 
select_counter is 512
Heartbeat CPU 0 instructions: 4000000 cycles: 2394087 heartbeat IPC: 1.67193 cumulative IPC: 1.67078 (Simulation time: 0 hr 2 min 1 sec) 
select_counter is 509
Heartbeat CPU 0 instructions: 5000000 cycles: 2993053 heartbeat IPC: 1.66954 cumulative IPC: 1.67054 (Simulation time: 0 hr 2 min 32 sec) 
select_counter is 508
Heartbeat CPU 0 instructions: 6000001 cycles: 3592667 heartbeat IPC: 1.66774 cumulative IPC: 1.67007 (Simulation time: 0 hr 3 min 2 sec) 
select_counter is 505
Heartbeat CPU 0 instructions: 7000001 cycles: 4190665 heartbeat IPC: 1.67225 cumulative IPC: 1.67038 (Simulation time: 0 hr 3 min 32 sec) 
select_counter is 495
Heartbeat CPU 0 instructions: 8000000 cycles: 4788873 heartbeat IPC: 1.67166 cumulative IPC: 1.67054 (Simulation time: 0 hr 4 min 4 sec) 
select_counter is 495
Heartbeat CPU 0 instructions: 9000002 cycles: 5387792 heartbeat IPC: 1.66968 cumulative IPC: 1.67044 (Simulation time: 0 hr 4 min 35 sec) 
select_counter is 494
Heartbeat CPU 0 instructions: 10000001 cycles: 5987357 heartbeat IPC: 1.66787 cumulative IPC: 1.67019 (Simulation time: 0 hr 5 min 6 sec) 
select_counter is 484

Warmup complete CPU 0 instructions: 10000001 cycles: 5987357 (Simulation time: 0 hr 5 min 6 sec) 

Heartbeat CPU 0 instructions: 11000003 cycles: 7744876 heartbeat IPC: 0.568985 cumulative IPC: 0.568985 (Simulation time: 0 hr 5 min 44 sec) 
select_counter is 465
Heartbeat CPU 0 instructions: 12000000 cycles: 9514917 heartbeat IPC: 0.564957 cumulative IPC: 0.566964 (Simulation time: 0 hr 6 min 23 sec) 
select_counter is 423
Heartbeat CPU 0 instructions: 13000000 cycles: 11300689 heartbeat IPC: 0.559982 cumulative IPC: 0.564617 (Simulation time: 0 hr 7 min 2 sec) 
select_counter is 412
Heartbeat CPU 0 instructions: 14000002 cycles: 13084470 heartbeat IPC: 0.560608 cumulative IPC: 0.56361 (Simulation time: 0 hr 7 min 41 sec) 
select_counter is 393
Heartbeat CPU 0 instructions: 15000003 cycles: 14875445 heartbeat IPC: 0.558356 cumulative IPC: 0.562551 (Simulation time: 0 hr 8 min 18 sec) 
select_counter is 378
Heartbeat CPU 0 instructions: 16000000 cycles: 16623842 heartbeat IPC: 0.571951 cumulative IPC: 0.564096 (Simulation time: 0 hr 8 min 58 sec) 
select_counter is 374
Heartbeat CPU 0 instructions: 17000000 cycles: 18405273 heartbeat IPC: 0.561346 cumulative IPC: 0.563702 (Simulation time: 0 hr 9 min 38 sec) 
select_counter is 366
Heartbeat CPU 0 instructions: 18000000 cycles: 20186736 heartbeat IPC: 0.561336 cumulative IPC: 0.563405 (Simulation time: 0 hr 10 min 17 sec) 
select_counter is 370
Heartbeat CPU 0 instructions: 19000003 cycles: 21965305 heartbeat IPC: 0.562251 cumulative IPC: 0.563276 (Simulation time: 0 hr 10 min 55 sec) 
select_counter is 369
Heartbeat CPU 0 instructions: 20000000 cycles: 23713716 heartbeat IPC: 0.571946 cumulative IPC: 0.564132 (Simulation time: 0 hr 11 min 33 sec) 
select_counter is 360
Heartbeat CPU 0 instructions: 21000001 cycles: 25480302 heartbeat IPC: 0.566064 cumulative IPC: 0.564307 (Simulation time: 0 hr 12 min 9 sec) 
select_counter is 353
Heartbeat CPU 0 instructions: 22000001 cycles: 27263153 heartbeat IPC: 0.560899 cumulative IPC: 0.564021 (Simulation time: 0 hr 12 min 48 sec) 
select_counter is 350
Heartbeat CPU 0 instructions: 23000000 cycles: 29049566 heartbeat IPC: 0.55978 cumulative IPC: 0.563693 (Simulation time: 0 hr 13 min 26 sec) 
select_counter is 345
Heartbeat CPU 0 instructions: 24000000 cycles: 30831773 heartbeat IPC: 0.561102 cumulative IPC: 0.563507 (Simulation time: 0 hr 14 min 4 sec) 
select_counter is 340
Heartbeat CPU 0 instructions: 25000002 cycles: 32578833 heartbeat IPC: 0.572391 cumulative IPC: 0.564091 (Simulation time: 0 hr 14 min 42 sec) 
select_counter is 330
Heartbeat CPU 0 instructions: 26000000 cycles: 34360934 heartbeat IPC: 0.561134 cumulative IPC: 0.563905 (Simulation time: 0 hr 15 min 22 sec) 
select_counter is 326
Heartbeat CPU 0 instructions: 27000000 cycles: 36143211 heartbeat IPC: 0.56108 cumulative IPC: 0.563738 (Simulation time: 0 hr 16 min 1 sec) 
select_counter is 323
Heartbeat CPU 0 instructions: 28000000 cycles: 37921900 heartbeat IPC: 0.562212 cumulative IPC: 0.563653 (Simulation time: 0 hr 16 min 39 sec) 
select_counter is 320
Heartbeat CPU 0 instructions: 29000000 cycles: 39671224 heartbeat IPC: 0.571649 cumulative IPC: 0.564068 (Simulation time: 0 hr 17 min 16 sec) 
select_counter is 317
Heartbeat CPU 0 instructions: 30000003 cycles: 41432284 heartbeat IPC: 0.567842 cumulative IPC: 0.564256 (Simulation time: 0 hr 17 min 54 sec) 
select_counter is 315
Heartbeat CPU 0 instructions: 31000000 cycles: 43214985 heartbeat IPC: 0.560945 cumulative IPC: 0.564097 (Simulation time: 0 hr 18 min 33 sec) 
select_counter is 311
Heartbeat CPU 0 instructions: 32000000 cycles: 44996391 heartbeat IPC: 0.561354 cumulative IPC: 0.563972 (Simulation time: 0 hr 19 min 11 sec) 
select_counter is 308
Heartbeat CPU 0 instructions: 33000000 cycles: 46780368 heartbeat IPC: 0.560545 cumulative IPC: 0.563822 (Simulation time: 0 hr 19 min 49 sec) 
select_counter is 288
Heartbeat CPU 0 instructions: 34000000 cycles: 48518936 heartbeat IPC: 0.575186 cumulative IPC: 0.564287 (Simulation time: 0 hr 20 min 28 sec) 
select_counter is 281
Heartbeat CPU 0 instructions: 35000003 cycles: 50302004 heartbeat IPC: 0.560833 cumulative IPC: 0.564148 (Simulation time: 0 hr 21 min 6 sec) 
select_counter is 286
Heartbeat CPU 0 instructions: 36000000 cycles: 52083050 heartbeat IPC: 0.561466 cumulative IPC: 0.564044 (Simulation time: 0 hr 21 min 43 sec) 
select_counter is 280
Heartbeat CPU 0 instructions: 37000001 cycles: 53866665 heartbeat IPC: 0.56066 cumulative IPC: 0.563918 (Simulation time: 0 hr 22 min 22 sec) 
select_counter is 278
Heartbeat CPU 0 instructions: 38000000 cycles: 55617735 heartbeat IPC: 0.571079 cumulative IPC: 0.564171 (Simulation time: 0 hr 23 min 0 sec) 
select_counter is 280
Heartbeat CPU 0 instructions: 39000000 cycles: 57372450 heartbeat IPC: 0.569893 cumulative IPC: 0.564366 (Simulation time: 0 hr 23 min 37 sec) 
select_counter is 279
Heartbeat CPU 0 instructions: 40000000 cycles: 59153855 heartbeat IPC: 0.561355 cumulative IPC: 0.564265 (Simulation time: 0 hr 24 min 17 sec) 
select_counter is 274
Heartbeat CPU 0 instructions: 41000001 cycles: 60935690 heartbeat IPC: 0.56122 cumulative IPC: 0.564166 (Simulation time: 0 hr 24 min 56 sec) 
select_counter is 263
Heartbeat CPU 0 instructions: 42000003 cycles: 62718401 heartbeat IPC: 0.560945 cumulative IPC: 0.564065 (Simulation time: 0 hr 25 min 33 sec) 
select_counter is 265
Heartbeat CPU 0 instructions: 43000001 cycles: 64446381 heartbeat IPC: 0.578709 cumulative IPC: 0.564498 (Simulation time: 0 hr 26 min 11 sec) 
select_counter is 257
Heartbeat CPU 0 instructions: 44000000 cycles: 66227235 heartbeat IPC: 0.561528 cumulative IPC: 0.56441 (Simulation time: 0 hr 26 min 52 sec) 
select_counter is 247
Heartbeat CPU 0 instructions: 45000001 cycles: 68007370 heartbeat IPC: 0.561756 cumulative IPC: 0.564334 (Simulation time: 0 hr 27 min 30 sec) 
select_counter is 245
Heartbeat CPU 0 instructions: 46000001 cycles: 69786257 heartbeat IPC: 0.562149 cumulative IPC: 0.564273 (Simulation time: 0 hr 28 min 8 sec) 
select_counter is 250
Heartbeat CPU 0 instructions: 47000000 cycles: 71538678 heartbeat IPC: 0.570639 cumulative IPC: 0.564443 (Simulation time: 0 hr 28 min 45 sec) 
select_counter is 248
Heartbeat CPU 0 instructions: 48000000 cycles: 73279993 heartbeat IPC: 0.574279 cumulative IPC: 0.564698 (Simulation time: 0 hr 29 min 22 sec) 
select_counter is 243
Heartbeat CPU 0 instructions: 49000002 cycles: 75062054 heartbeat IPC: 0.561149 cumulative IPC: 0.564606 (Simulation time: 0 hr 30 min 0 sec) 
select_counter is 245
Heartbeat CPU 0 instructions: 50000002 cycles: 76842701 heartbeat IPC: 0.561594 cumulative IPC: 0.56453 (Simulation time: 0 hr 30 min 37 sec) 
select_counter is 246
Heartbeat CPU 0 instructions: 51000002 cycles: 78642386 heartbeat IPC: 0.555653 cumulative IPC: 0.564311 (Simulation time: 0 hr 31 min 16 sec) 
select_counter is 231
Heartbeat CPU 0 instructions: 52000000 cycles: 80365310 heartbeat IPC: 0.580408 cumulative IPC: 0.564683 (Simulation time: 0 hr 31 min 54 sec) 
select_counter is 232
Heartbeat CPU 0 instructions: 53000002 cycles: 82132738 heartbeat IPC: 0.565795 cumulative IPC: 0.564709 (Simulation time: 0 hr 32 min 34 sec) 
select_counter is 227
Heartbeat CPU 0 instructions: 54000001 cycles: 83913674 heartbeat IPC: 0.561502 cumulative IPC: 0.564636 (Simulation time: 0 hr 33 min 11 sec) 
select_counter is 215
Heartbeat CPU 0 instructions: 55000000 cycles: 85693217 heartbeat IPC: 0.561941 cumulative IPC: 0.564576 (Simulation time: 0 hr 33 min 50 sec) 
select_counter is 219
Heartbeat CPU 0 instructions: 56000000 cycles: 87467664 heartbeat IPC: 0.563556 cumulative IPC: 0.564554 (Simulation time: 0 hr 34 min 29 sec) 
select_counter is 216
Heartbeat CPU 0 instructions: 57000001 cycles: 89192996 heartbeat IPC: 0.579599 cumulative IPC: 0.564866 (Simulation time: 0 hr 35 min 6 sec) 
select_counter is 209
Heartbeat CPU 0 instructions: 58000001 cycles: 90975009 heartbeat IPC: 0.561163 cumulative IPC: 0.564788 (Simulation time: 0 hr 35 min 43 sec) 
select_counter is 193
Heartbeat CPU 0 instructions: 59000000 cycles: 92756351 heartbeat IPC: 0.561374 cumulative IPC: 0.564718 (Simulation time: 0 hr 36 min 23 sec) 
select_counter is 196
Heartbeat CPU 0 instructions: 60000000 cycles: 94539396 heartbeat IPC: 0.560838 cumulative IPC: 0.56464 (Simulation time: 0 hr 37 min 0 sec) 
select_counter is 197
Heartbeat CPU 0 instructions: 61000001 cycles: 96279201 heartbeat IPC: 0.574778 cumulative IPC: 0.564835 (Simulation time: 0 hr 37 min 35 sec) 
select_counter is 198
Heartbeat CPU 0 instructions: 62000001 cycles: 98022127 heartbeat IPC: 0.573748 cumulative IPC: 0.565004 (Simulation time: 0 hr 38 min 12 sec) 
select_counter is 198
Heartbeat CPU 0 instructions: 63000002 cycles: 99807839 heartbeat IPC: 0.560001 cumulative IPC: 0.564909 (Simulation time: 0 hr 38 min 47 sec) 
select_counter is 195
Heartbeat CPU 0 instructions: 64000000 cycles: 101590065 heartbeat IPC: 0.561095 cumulative IPC: 0.564838 (Simulation time: 0 hr 39 min 23 sec) 
select_counter is 199
Heartbeat CPU 0 instructions: 65000000 cycles: 103377833 heartbeat IPC: 0.559357 cumulative IPC: 0.564737 (Simulation time: 0 hr 40 min 0 sec) 
select_counter is 192
Heartbeat CPU 0 instructions: 66000001 cycles: 105091719 heartbeat IPC: 0.58347 cumulative IPC: 0.565061 (Simulation time: 0 hr 40 min 34 sec) 
select_counter is 191
Heartbeat CPU 0 instructions: 67000002 cycles: 106848532 heartbeat IPC: 0.569213 cumulative IPC: 0.565133 (Simulation time: 0 hr 41 min 11 sec) 
select_counter is 195
Heartbeat CPU 0 instructions: 68000000 cycles: 108634323 heartbeat IPC: 0.559975 cumulative IPC: 0.565044 (Simulation time: 0 hr 41 min 48 sec) 
select_counter is 191
Heartbeat CPU 0 instructions: 69000001 cycles: 110416952 heartbeat IPC: 0.56097 cumulative IPC: 0.564974 (Simulation time: 0 hr 42 min 23 sec) 
select_counter is 185
Heartbeat CPU 0 instructions: 70000000 cycles: 112186242 heartbeat IPC: 0.565198 cumulative IPC: 0.564978 (Simulation time: 0 hr 42 min 56 sec) 
select_counter is 183
Heartbeat CPU 0 instructions: 71000001 cycles: 113901541 heartbeat IPC: 0.582989 cumulative IPC: 0.565264 (Simulation time: 0 hr 43 min 31 sec) 
select_counter is 181
Heartbeat CPU 0 instructions: 72000000 cycles: 115678420 heartbeat IPC: 0.562784 cumulative IPC: 0.565224 (Simulation time: 0 hr 44 min 5 sec) 
select_counter is 186
Heartbeat CPU 0 instructions: 73000001 cycles: 117466114 heartbeat IPC: 0.55938 cumulative IPC: 0.56513 (Simulation time: 0 hr 44 min 40 sec) 
select_counter is 189
Heartbeat CPU 0 instructions: 74000000 cycles: 119245643 heartbeat IPC: 0.561946 cumulative IPC: 0.56508 (Simulation time: 0 hr 45 min 13 sec) 
select_counter is 181
Heartbeat CPU 0 instructions: 75000002 cycles: 121002058 heartbeat IPC: 0.569343 cumulative IPC: 0.565145 (Simulation time: 0 hr 45 min 44 sec) 
select_counter is 182
Heartbeat CPU 0 instructions: 76000000 cycles: 122736464 heartbeat IPC: 0.576565 cumulative IPC: 0.565315 (Simulation time: 0 hr 46 min 13 sec) 
select_counter is 180
Heartbeat CPU 0 instructions: 77000003 cycles: 124514113 heartbeat IPC: 0.562542 cumulative IPC: 0.565273 (Simulation time: 0 hr 46 min 44 sec) 
select_counter is 175
Heartbeat CPU 0 instructions: 78000000 cycles: 126295815 heartbeat IPC: 0.561259 cumulative IPC: 0.565214 (Simulation time: 0 hr 47 min 16 sec) 
select_counter is 176
Heartbeat CPU 0 instructions: 79000000 cycles: 128094127 heartbeat IPC: 0.556077 cumulative IPC: 0.565079 (Simulation time: 0 hr 47 min 45 sec) 
select_counter is 168
Heartbeat CPU 0 instructions: 80000000 cycles: 129811412 heartbeat IPC: 0.582315 cumulative IPC: 0.565318 (Simulation time: 0 hr 48 min 11 sec) 
select_counter is 163
Heartbeat CPU 0 instructions: 81000003 cycles: 131577517 heartbeat IPC: 0.566219 cumulative IPC: 0.565331 (Simulation time: 0 hr 48 min 35 sec) 
select_counter is 160
Heartbeat CPU 0 instructions: 82000002 cycles: 133368339 heartbeat IPC: 0.558402 cumulative IPC: 0.565234 (Simulation time: 0 hr 48 min 59 sec) 
select_counter is 183
Heartbeat CPU 0 instructions: 83000001 cycles: 135153493 heartbeat IPC: 0.560175 cumulative IPC: 0.565164 (Simulation time: 0 hr 49 min 20 sec) 
select_counter is 177
Heartbeat CPU 0 instructions: 84000000 cycles: 136929769 heartbeat IPC: 0.562975 cumulative IPC: 0.565134 (Simulation time: 0 hr 49 min 41 sec) 
select_counter is 177
Heartbeat CPU 0 instructions: 85000000 cycles: 138647593 heartbeat IPC: 0.582132 cumulative IPC: 0.565354 (Simulation time: 0 hr 50 min 1 sec) 
select_counter is 171
Heartbeat CPU 0 instructions: 86000001 cycles: 140432984 heartbeat IPC: 0.560102 cumulative IPC: 0.565284 (Simulation time: 0 hr 50 min 20 sec) 
select_counter is 168
Heartbeat CPU 0 instructions: 87000000 cycles: 142215172 heartbeat IPC: 0.561107 cumulative IPC: 0.56523 (Simulation time: 0 hr 50 min 44 sec) 
select_counter is 168
Heartbeat CPU 0 instructions: 88000000 cycles: 143992039 heartbeat IPC: 0.562788 cumulative IPC: 0.565198 (Simulation time: 0 hr 51 min 2 sec) 
select_counter is 163
Heartbeat CPU 0 instructions: 89000000 cycles: 145743972 heartbeat IPC: 0.570798 cumulative IPC: 0.565268 (Simulation time: 0 hr 51 min 19 sec) 
select_counter is 159
Heartbeat CPU 0 instructions: 90000000 cycles: 147499419 heartbeat IPC: 0.569655 cumulative IPC: 0.565323 (Simulation time: 0 hr 51 min 37 sec) 
select_counter is 162
Heartbeat CPU 0 instructions: 91000001 cycles: 149278725 heartbeat IPC: 0.562017 cumulative IPC: 0.565282 (Simulation time: 0 hr 51 min 55 sec) 
select_counter is 162
Heartbeat CPU 0 instructions: 92000000 cycles: 151062235 heartbeat IPC: 0.560692 cumulative IPC: 0.565225 (Simulation time: 0 hr 52 min 13 sec) 
select_counter is 157
Heartbeat CPU 0 instructions: 93000003 cycles: 152845754 heartbeat IPC: 0.560691 cumulative IPC: 0.56517 (Simulation time: 0 hr 52 min 30 sec) 
select_counter is 160
Heartbeat CPU 0 instructions: 94000001 cycles: 154572744 heartbeat IPC: 0.579041 cumulative IPC: 0.565332 (Simulation time: 0 hr 52 min 46 sec) 
select_counter is 158
Heartbeat CPU 0 instructions: 95000001 cycles: 156353515 heartbeat IPC: 0.561554 cumulative IPC: 0.565287 (Simulation time: 0 hr 53 min 1 sec) 
select_counter is 155
Heartbeat CPU 0 instructions: 96000000 cycles: 158133385 heartbeat IPC: 0.561838 cumulative IPC: 0.565246 (Simulation time: 0 hr 53 min 16 sec) 
select_counter is 153
Heartbeat CPU 0 instructions: 97000000 cycles: 159912829 heartbeat IPC: 0.561973 cumulative IPC: 0.565209 (Simulation time: 0 hr 53 min 30 sec) 
select_counter is 152
Heartbeat CPU 0 instructions: 98000000 cycles: 161674898 heartbeat IPC: 0.567515 cumulative IPC: 0.565235 (Simulation time: 0 hr 53 min 44 sec) 
select_counter is 155
Heartbeat CPU 0 instructions: 99000000 cycles: 163429381 heartbeat IPC: 0.569968 cumulative IPC: 0.565287 (Simulation time: 0 hr 53 min 58 sec) 
select_counter is 156
Heartbeat CPU 0 instructions: 100000000 cycles: 165208196 heartbeat IPC: 0.562172 cumulative IPC: 0.565253 (Simulation time: 0 hr 54 min 11 sec) 
select_counter is 158
Heartbeat CPU 0 instructions: 101000000 cycles: 166986752 heartbeat IPC: 0.562254 cumulative IPC: 0.56522 (Simulation time: 0 hr 54 min 22 sec) 
select_counter is 156
Heartbeat CPU 0 instructions: 102000003 cycles: 168775279 heartbeat IPC: 0.559121 cumulative IPC: 0.565153 (Simulation time: 0 hr 54 min 34 sec) 
select_counter is 160
Heartbeat CPU 0 instructions: 103000001 cycles: 170506331 heartbeat IPC: 0.577682 cumulative IPC: 0.565284 (Simulation time: 0 hr 54 min 43 sec) 
select_counter is 149
Heartbeat CPU 0 instructions: 104000000 cycles: 172290917 heartbeat IPC: 0.560354 cumulative IPC: 0.565231 (Simulation time: 0 hr 54 min 53 sec) 
select_counter is 151
Heartbeat CPU 0 instructions: 105000002 cycles: 174070606 heartbeat IPC: 0.561897 cumulative IPC: 0.565196 (Simulation time: 0 hr 55 min 1 sec) 
select_counter is 156
Heartbeat CPU 0 instructions: 106000001 cycles: 175847851 heartbeat IPC: 0.562668 cumulative IPC: 0.56517 (Simulation time: 0 hr 55 min 10 sec) 
select_counter is 161
Heartbeat CPU 0 instructions: 107000003 cycles: 177607035 heartbeat IPC: 0.568447 cumulative IPC: 0.565203 (Simulation time: 0 hr 55 min 17 sec) 
select_counter is 156
Heartbeat CPU 0 instructions: 108000000 cycles: 179372313 heartbeat IPC: 0.566481 cumulative IPC: 0.565216 (Simulation time: 0 hr 55 min 24 sec) 
select_counter is 149
Heartbeat CPU 0 instructions: 109000002 cycles: 181156749 heartbeat IPC: 0.560402 cumulative IPC: 0.565167 (Simulation time: 0 hr 55 min 30 sec) 
select_counter is 157
Heartbeat CPU 0 instructions: 110000003 cycles: 182935817 heartbeat IPC: 0.562093 cumulative IPC: 0.565136 (Simulation time: 0 hr 55 min 36 sec) 
select_counter is 150
Finished CPU 0 instructions: 100000002 cycles: 176948460 cummulative IPC: 0.565136 (Simulation time: 0 hr 55 min 36 sec) 

ChampSim completed all CPUs

Region of Interest Statistics

CPU 0 cummulative IPC: 0.565136 instructions: 100000002 cycles: 176948460
LLC TOTAL     ACCESS:     134772  HIT:      33981  MISS:     100791
LLC LOAD      ACCESS:      14863  HIT:       4298  MISS:      10565
LLC RFO       ACCESS:       1243  HIT:        338  MISS:        905
LLC PREFETCH  ACCESS:      79559  HIT:       9889  MISS:      69670
LLC WRITEBACK ACCESS:      39107  HIT:      19456  MISS:      19651
Ship samples: size is 64
16, 61, 74, 105, 130, 186, 204, 255, 259, 315, 350, 381, 390, 434, 448, 511, 535, 563, 599, 636, 661, 692, 718, 765, 773, 823, 855, 886, 903, 957, 971, 1015, 1050, 1077, 1088, 1148, 1168, 1196, 1243, 1267, 1288, 1337, 1360, 1390, 1419, 1456, 1485, 1506, 1540, 1572, 1631, 1657, 1689, 1709, 1750, 1790, 1796, 1837, 1876, 1899, 1930, 1983, 1987, 2020, 
Ship duel samples: size is 32
16, 74, 130, 204, 259, 350, 390, 448, 535, 599, 661, 718, 773, 855, 903, 971, 1050, 1088, 1168, 1243, 1288, 1360, 1419, 1485, 1540, 1631, 1689, 1750, 1796, 1876, 1930, 1987, 
Lime duel samples: size is 32
4, 64, 151, 212, 280, 357, 432, 451, 541, 616, 687, 735, 826, 843, 916, 963, 1080, 1092, 1203, 1272, 1317, 1377, 1437, 1522, 1576, 1616, 1672, 1786, 1841, 1904, 1926, 2037, 
Lime samples: size is 15
4, 151, 280, 432, 541, 687, 826, 916, 1080, 1203, 1317, 1437, 1576, 1672, 1841, 
Insertion Distribution: 
	LOAD 906 0 0 0 0 0 9373 805 
	RFO 0 0 0 0 0 0 785 332 
	PREF 0 0 0 0 0 0 29745 44840 
	WRITEBACK 0 0 0 0 0 0 0 19864 
Total Prefetch Downgrades: 309
