
*** ChampSim Multicore Out-of-Order Simulator ***

Warmup Instructions: 10000000
Simulation Instructions: 100000000
Configuration: 2
Number of CPUs: 1
LLC sets: 2048
LLC ways: 16
Off-chip DRAM Channels: 1 Width: 64-bit Data Rate: 1600 MT/s

CPU 0 runs /datasets/cs240c-wi22-a00-public/data/Assignment2-gz/mcf_250B.trace.gz
CPU 0 L1D next line prefetcher
CPU 0 L2C IP-based stride prefetcher
Heartbeat CPU 0 instructions: 1000000 cycles: 532895 heartbeat IPC: 1.87654 cumulative IPC: 1.87654 (Simulation time: 0 hr 0 min 38 sec) 
select_counter is 536
Heartbeat CPU 0 instructions: 2000003 cycles: 1047072 heartbeat IPC: 1.94486 cumulative IPC: 1.91009 (Simulation time: 0 hr 1 min 16 sec) 
select_counter is 206
Heartbeat CPU 0 instructions: 3000002 cycles: 1542970 heartbeat IPC: 2.01654 cumulative IPC: 1.9443 (Simulation time: 0 hr 1 min 52 sec) 
select_counter is 954
Heartbeat CPU 0 instructions: 4000000 cycles: 2053437 heartbeat IPC: 1.95899 cumulative IPC: 1.94795 (Simulation time: 0 hr 2 min 30 sec) 
select_counter is 695
Heartbeat CPU 0 instructions: 5000002 cycles: 2558607 heartbeat IPC: 1.97954 cumulative IPC: 1.95419 (Simulation time: 0 hr 3 min 5 sec) 
select_counter is 398
Heartbeat CPU 0 instructions: 6000002 cycles: 3062721 heartbeat IPC: 1.98368 cumulative IPC: 1.95904 (Simulation time: 0 hr 3 min 43 sec) 
select_counter is 952
Heartbeat CPU 0 instructions: 7000002 cycles: 3601385 heartbeat IPC: 1.85644 cumulative IPC: 1.9437 (Simulation time: 0 hr 4 min 19 sec) 
select_counter is 834
Heartbeat CPU 0 instructions: 8000000 cycles: 4115358 heartbeat IPC: 1.94562 cumulative IPC: 1.94394 (Simulation time: 0 hr 4 min 56 sec) 
select_counter is 522
Heartbeat CPU 0 instructions: 9000002 cycles: 4628121 heartbeat IPC: 1.95022 cumulative IPC: 1.94463 (Simulation time: 0 hr 5 min 35 sec) 
select_counter is 208
Heartbeat CPU 0 instructions: 10000000 cycles: 5137742 heartbeat IPC: 1.96224 cumulative IPC: 1.94638 (Simulation time: 0 hr 6 min 11 sec) 
select_counter is 1015

Warmup complete CPU 0 instructions: 10000003 cycles: 5137743 (Simulation time: 0 hr 6 min 11 sec) 

Heartbeat CPU 0 instructions: 11000001 cycles: 14564955 heartbeat IPC: 0.106076 cumulative IPC: 0.106076 (Simulation time: 0 hr 7 min 7 sec) 
select_counter is 864
Heartbeat CPU 0 instructions: 12000000 cycles: 28281226 heartbeat IPC: 0.072906 cumulative IPC: 0.0864173 (Simulation time: 0 hr 8 min 20 sec) 
select_counter is 589
Heartbeat CPU 0 instructions: 13000001 cycles: 40891485 heartbeat IPC: 0.0793006 cumulative IPC: 0.0839072 (Simulation time: 0 hr 9 min 22 sec) 
select_counter is 376
Heartbeat CPU 0 instructions: 14000003 cycles: 49512515 heartbeat IPC: 0.115996 cumulative IPC: 0.0901413 (Simulation time: 0 hr 10 min 12 sec) 
select_counter is 1012
Heartbeat CPU 0 instructions: 15000002 cycles: 59095376 heartbeat IPC: 0.104353 cumulative IPC: 0.0926653 (Simulation time: 0 hr 11 min 5 sec) 
select_counter is 656
Heartbeat CPU 0 instructions: 16000000 cycles: 67388128 heartbeat IPC: 0.120587 cumulative IPC: 0.0963849 (Simulation time: 0 hr 11 min 56 sec) 
select_counter is 410
Heartbeat CPU 0 instructions: 17000000 cycles: 75172078 heartbeat IPC: 0.128469 cumulative IPC: 0.0999509 (Simulation time: 0 hr 12 min 48 sec) 
select_counter is 61
Heartbeat CPU 0 instructions: 18000002 cycles: 83887150 heartbeat IPC: 0.114744 cumulative IPC: 0.101588 (Simulation time: 0 hr 13 min 42 sec) 
select_counter is 819
Heartbeat CPU 0 instructions: 19000000 cycles: 92884645 heartbeat IPC: 0.111142 cumulative IPC: 0.102568 (Simulation time: 0 hr 14 min 40 sec) 
select_counter is 552
Heartbeat CPU 0 instructions: 20000000 cycles: 100690158 heartbeat IPC: 0.128115 cumulative IPC: 0.104655 (Simulation time: 0 hr 15 min 31 sec) 
select_counter is 294
Heartbeat CPU 0 instructions: 21000000 cycles: 108557032 heartbeat IPC: 0.127115 cumulative IPC: 0.106363 (Simulation time: 0 hr 16 min 19 sec) 
select_counter is 970
Heartbeat CPU 0 instructions: 22000000 cycles: 117251941 heartbeat IPC: 0.11501 cumulative IPC: 0.107034 (Simulation time: 0 hr 17 min 10 sec) 
select_counter is 727
Heartbeat CPU 0 instructions: 23000003 cycles: 126265405 heartbeat IPC: 0.110945 cumulative IPC: 0.107325 (Simulation time: 0 hr 18 min 5 sec) 
select_counter is 551
Heartbeat CPU 0 instructions: 24000000 cycles: 134024469 heartbeat IPC: 0.128881 cumulative IPC: 0.108622 (Simulation time: 0 hr 18 min 55 sec) 
select_counter is 267
Heartbeat CPU 0 instructions: 25000002 cycles: 141868860 heartbeat IPC: 0.12748 cumulative IPC: 0.109704 (Simulation time: 0 hr 19 min 46 sec) 
select_counter is 34
Heartbeat CPU 0 instructions: 26000000 cycles: 151098223 heartbeat IPC: 0.10835 cumulative IPC: 0.109619 (Simulation time: 0 hr 20 min 41 sec) 
select_counter is 953
Heartbeat CPU 0 instructions: 27000003 cycles: 160448254 heartbeat IPC: 0.106952 cumulative IPC: 0.109458 (Simulation time: 0 hr 21 min 34 sec) 
select_counter is 736
Heartbeat CPU 0 instructions: 28000000 cycles: 169277642 heartbeat IPC: 0.113258 cumulative IPC: 0.109663 (Simulation time: 0 hr 22 min 26 sec) 
select_counter is 402
Heartbeat CPU 0 instructions: 29000000 cycles: 177419849 heartbeat IPC: 0.122817 cumulative IPC: 0.110284 (Simulation time: 0 hr 23 min 16 sec) 
select_counter is 86
Heartbeat CPU 0 instructions: 30000000 cycles: 186209521 heartbeat IPC: 0.11377 cumulative IPC: 0.110453 (Simulation time: 0 hr 24 min 8 sec) 
select_counter is 965
Heartbeat CPU 0 instructions: 31000000 cycles: 195585781 heartbeat IPC: 0.106652 cumulative IPC: 0.110266 (Simulation time: 0 hr 25 min 2 sec) 
select_counter is 788
Heartbeat CPU 0 instructions: 32000000 cycles: 204560091 heartbeat IPC: 0.111429 cumulative IPC: 0.110319 (Simulation time: 0 hr 25 min 52 sec) 
select_counter is 566
Heartbeat CPU 0 instructions: 33000000 cycles: 212682787 heartbeat IPC: 0.123112 cumulative IPC: 0.110819 (Simulation time: 0 hr 26 min 47 sec) 
select_counter is 132
Heartbeat CPU 0 instructions: 34000000 cycles: 221728718 heartbeat IPC: 0.110547 cumulative IPC: 0.110808 (Simulation time: 0 hr 27 min 38 sec) 
select_counter is 725
Heartbeat CPU 0 instructions: 35000000 cycles: 232879238 heartbeat IPC: 0.0896819 cumulative IPC: 0.109774 (Simulation time: 0 hr 28 min 34 sec) 
select_counter is 433
Heartbeat CPU 0 instructions: 36000000 cycles: 246236778 heartbeat IPC: 0.0748641 cumulative IPC: 0.107839 (Simulation time: 0 hr 29 min 38 sec) 
select_counter is 426
Heartbeat CPU 0 instructions: 37000002 cycles: 254625949 heartbeat IPC: 0.119202 cumulative IPC: 0.108222 (Simulation time: 0 hr 30 min 28 sec) 
select_counter is 196
Heartbeat CPU 0 instructions: 38000000 cycles: 263141048 heartbeat IPC: 0.117438 cumulative IPC: 0.108526 (Simulation time: 0 hr 31 min 21 sec) 
select_counter is 945
Heartbeat CPU 0 instructions: 39000000 cycles: 272441316 heartbeat IPC: 0.107524 cumulative IPC: 0.108491 (Simulation time: 0 hr 32 min 18 sec) 
select_counter is 737
Heartbeat CPU 0 instructions: 40000000 cycles: 281548558 heartbeat IPC: 0.109803 cumulative IPC: 0.108534 (Simulation time: 0 hr 33 min 12 sec) 
select_counter is 514
Heartbeat CPU 0 instructions: 41000000 cycles: 289296846 heartbeat IPC: 0.129061 cumulative IPC: 0.109094 (Simulation time: 0 hr 34 min 5 sec) 
select_counter is 172
Heartbeat CPU 0 instructions: 42000000 cycles: 298539496 heartbeat IPC: 0.108194 cumulative IPC: 0.109065 (Simulation time: 0 hr 35 min 2 sec) 
select_counter is 796
Heartbeat CPU 0 instructions: 43000000 cycles: 307632904 heartbeat IPC: 0.10997 cumulative IPC: 0.109093 (Simulation time: 0 hr 36 min 2 sec) 
select_counter is 486
Heartbeat CPU 0 instructions: 44000000 cycles: 315715162 heartbeat IPC: 0.123728 cumulative IPC: 0.109473 (Simulation time: 0 hr 36 min 56 sec) 
select_counter is 996
Heartbeat CPU 0 instructions: 45000001 cycles: 324940807 heartbeat IPC: 0.108394 cumulative IPC: 0.109442 (Simulation time: 0 hr 37 min 53 sec) 
select_counter is 581
Heartbeat CPU 0 instructions: 46000000 cycles: 332972793 heartbeat IPC: 0.124502 cumulative IPC: 0.109811 (Simulation time: 0 hr 38 min 47 sec) 
select_counter is 160
Heartbeat CPU 0 instructions: 47000002 cycles: 341785664 heartbeat IPC: 0.113471 cumulative IPC: 0.109907 (Simulation time: 0 hr 39 min 45 sec) 
select_counter is 685
Heartbeat CPU 0 instructions: 48000000 cycles: 349918113 heartbeat IPC: 0.122964 cumulative IPC: 0.110215 (Simulation time: 0 hr 40 min 40 sec) 
select_counter is 224
Heartbeat CPU 0 instructions: 49000000 cycles: 359136945 heartbeat IPC: 0.108474 cumulative IPC: 0.11017 (Simulation time: 0 hr 41 min 35 sec) 
select_counter is 768
Heartbeat CPU 0 instructions: 50000002 cycles: 367991540 heartbeat IPC: 0.112936 cumulative IPC: 0.110237 (Simulation time: 0 hr 42 min 29 sec) 
select_counter is 251
Heartbeat CPU 0 instructions: 51000002 cycles: 376458132 heartbeat IPC: 0.118111 cumulative IPC: 0.110417 (Simulation time: 0 hr 43 min 20 sec) 
select_counter is 944
Heartbeat CPU 0 instructions: 52000000 cycles: 385804588 heartbeat IPC: 0.106992 cumulative IPC: 0.110333 (Simulation time: 0 hr 44 min 13 sec) 
select_counter is 555
Heartbeat CPU 0 instructions: 53000000 cycles: 393674070 heartbeat IPC: 0.127073 cumulative IPC: 0.110672 (Simulation time: 0 hr 45 min 2 sec) 
select_counter is 145
Heartbeat CPU 0 instructions: 54000000 cycles: 402609456 heartbeat IPC: 0.111915 cumulative IPC: 0.1107 (Simulation time: 0 hr 45 min 51 sec) 
select_counter is 751
Heartbeat CPU 0 instructions: 55000000 cycles: 411277660 heartbeat IPC: 0.115364 cumulative IPC: 0.110799 (Simulation time: 0 hr 46 min 36 sec) 
select_counter is 296
Heartbeat CPU 0 instructions: 56000000 cycles: 419828829 heartbeat IPC: 0.116943 cumulative IPC: 0.110926 (Simulation time: 0 hr 47 min 18 sec) 
select_counter is 912
Heartbeat CPU 0 instructions: 57000000 cycles: 428865043 heartbeat IPC: 0.110666 cumulative IPC: 0.11092 (Simulation time: 0 hr 48 min 2 sec) 
select_counter is 382
Heartbeat CPU 0 instructions: 58000000 cycles: 436588619 heartbeat IPC: 0.129474 cumulative IPC: 0.111253 (Simulation time: 0 hr 48 min 36 sec) 
select_counter is 1011
Heartbeat CPU 0 instructions: 59000001 cycles: 445887613 heartbeat IPC: 0.107539 cumulative IPC: 0.111174 (Simulation time: 0 hr 49 min 12 sec) 
select_counter is 530
Heartbeat CPU 0 instructions: 60000000 cycles: 453644298 heartbeat IPC: 0.128921 cumulative IPC: 0.111481 (Simulation time: 0 hr 49 min 42 sec) 
select_counter is 212
Heartbeat CPU 0 instructions: 61000001 cycles: 461813001 heartbeat IPC: 0.122419 cumulative IPC: 0.111677 (Simulation time: 0 hr 50 min 14 sec) 
select_counter is 913
Heartbeat CPU 0 instructions: 62000000 cycles: 469644216 heartbeat IPC: 0.127694 cumulative IPC: 0.111947 (Simulation time: 0 hr 50 min 43 sec) 
select_counter is 484
Heartbeat CPU 0 instructions: 63000001 cycles: 476847237 heartbeat IPC: 0.138831 cumulative IPC: 0.112357 (Simulation time: 0 hr 51 min 10 sec) 
select_counter is 14
Heartbeat CPU 0 instructions: 64000000 cycles: 486160699 heartbeat IPC: 0.107371 cumulative IPC: 0.112261 (Simulation time: 0 hr 51 min 39 sec) 
select_counter is 618
Heartbeat CPU 0 instructions: 65000000 cycles: 493885336 heartbeat IPC: 0.129456 cumulative IPC: 0.112533 (Simulation time: 0 hr 52 min 6 sec) 
select_counter is 168
Heartbeat CPU 0 instructions: 66000000 cycles: 502388365 heartbeat IPC: 0.117605 cumulative IPC: 0.112619 (Simulation time: 0 hr 52 min 32 sec) 
select_counter is 825
Heartbeat CPU 0 instructions: 67000001 cycles: 511522636 heartbeat IPC: 0.109478 cumulative IPC: 0.112563 (Simulation time: 0 hr 52 min 59 sec) 
select_counter is 530
Heartbeat CPU 0 instructions: 68000000 cycles: 519327576 heartbeat IPC: 0.128124 cumulative IPC: 0.112799 (Simulation time: 0 hr 53 min 21 sec) 
select_counter is 192
Heartbeat CPU 0 instructions: 69000000 cycles: 527881529 heartbeat IPC: 0.116905 cumulative IPC: 0.112866 (Simulation time: 0 hr 53 min 43 sec) 
select_counter is 835
Heartbeat CPU 0 instructions: 70000000 cycles: 536602685 heartbeat IPC: 0.114664 cumulative IPC: 0.112895 (Simulation time: 0 hr 54 min 6 sec) 
select_counter is 449
Heartbeat CPU 0 instructions: 71000000 cycles: 544516157 heartbeat IPC: 0.126367 cumulative IPC: 0.113093 (Simulation time: 0 hr 54 min 25 sec) 
select_counter is 819
Heartbeat CPU 0 instructions: 72000000 cycles: 552890375 heartbeat IPC: 0.119414 cumulative IPC: 0.11319 (Simulation time: 0 hr 54 min 42 sec) 
select_counter is 308
Heartbeat CPU 0 instructions: 73000000 cycles: 561453703 heartbeat IPC: 0.116777 cumulative IPC: 0.113245 (Simulation time: 0 hr 54 min 56 sec) 
select_counter is 750
Heartbeat CPU 0 instructions: 74000001 cycles: 569567065 heartbeat IPC: 0.123254 cumulative IPC: 0.113389 (Simulation time: 0 hr 55 min 8 sec) 
select_counter is 167
Heartbeat CPU 0 instructions: 75000002 cycles: 578081621 heartbeat IPC: 0.117446 cumulative IPC: 0.113449 (Simulation time: 0 hr 55 min 20 sec) 
select_counter is 679
Heartbeat CPU 0 instructions: 76000000 cycles: 586185400 heartbeat IPC: 0.123399 cumulative IPC: 0.113588 (Simulation time: 0 hr 55 min 29 sec) 
select_counter is 298
Heartbeat CPU 0 instructions: 77000003 cycles: 600511425 heartbeat IPC: 0.0698032 cumulative IPC: 0.112534 (Simulation time: 0 hr 55 min 40 sec) 
select_counter is 429
Heartbeat CPU 0 instructions: 78000000 cycles: 610174500 heartbeat IPC: 0.103486 cumulative IPC: 0.11239 (Simulation time: 0 hr 55 min 47 sec) 
select_counter is 950
Heartbeat CPU 0 instructions: 79000000 cycles: 619176047 heartbeat IPC: 0.111092 cumulative IPC: 0.112371 (Simulation time: 0 hr 55 min 54 sec) 
select_counter is 495
Heartbeat CPU 0 instructions: 80000000 cycles: 627144006 heartbeat IPC: 0.125503 cumulative IPC: 0.112539 (Simulation time: 0 hr 56 min 0 sec) 
select_counter is 989
Heartbeat CPU 0 instructions: 81000001 cycles: 635754213 heartbeat IPC: 0.116141 cumulative IPC: 0.112588 (Simulation time: 0 hr 56 min 5 sec) 
select_counter is 419
Heartbeat CPU 0 instructions: 82000001 cycles: 642693560 heartbeat IPC: 0.144106 cumulative IPC: 0.112931 (Simulation time: 0 hr 56 min 10 sec) 
select_counter is 1004
Heartbeat CPU 0 instructions: 83000002 cycles: 650362858 heartbeat IPC: 0.13039 cumulative IPC: 0.113139 (Simulation time: 0 hr 56 min 16 sec) 
select_counter is 475
Heartbeat CPU 0 instructions: 84000000 cycles: 656697804 heartbeat IPC: 0.157854 cumulative IPC: 0.113574 (Simulation time: 0 hr 56 min 20 sec) 
select_counter is 962
Heartbeat CPU 0 instructions: 85000000 cycles: 664716450 heartbeat IPC: 0.124709 cumulative IPC: 0.113709 (Simulation time: 0 hr 56 min 26 sec) 
select_counter is 518
Heartbeat CPU 0 instructions: 86000000 cycles: 671121451 heartbeat IPC: 0.156128 cumulative IPC: 0.114117 (Simulation time: 0 hr 56 min 31 sec) 
select_counter is 41
Heartbeat CPU 0 instructions: 87000001 cycles: 684713870 heartbeat IPC: 0.0735705 cumulative IPC: 0.113306 (Simulation time: 0 hr 56 min 37 sec) 
select_counter is 1021
Heartbeat CPU 0 instructions: 88000000 cycles: 695781192 heartbeat IPC: 0.090356 cumulative IPC: 0.112938 (Simulation time: 0 hr 56 min 44 sec) 
select_counter is 514
Heartbeat CPU 0 instructions: 89000001 cycles: 703056531 heartbeat IPC: 0.137451 cumulative IPC: 0.113194 (Simulation time: 0 hr 56 min 49 sec) 
select_counter is 92
Heartbeat CPU 0 instructions: 90000001 cycles: 709849589 heartbeat IPC: 0.147209 cumulative IPC: 0.113522 (Simulation time: 0 hr 56 min 54 sec) 
select_counter is 791
Heartbeat CPU 0 instructions: 91000000 cycles: 719970405 heartbeat IPC: 0.0988062 cumulative IPC: 0.113313 (Simulation time: 0 hr 56 min 59 sec) 
select_counter is 818
Heartbeat CPU 0 instructions: 92000000 cycles: 728789305 heartbeat IPC: 0.113393 cumulative IPC: 0.113314 (Simulation time: 0 hr 57 min 5 sec) 
select_counter is 588
Heartbeat CPU 0 instructions: 93000000 cycles: 737545694 heartbeat IPC: 0.114202 cumulative IPC: 0.113325 (Simulation time: 0 hr 57 min 10 sec) 
select_counter is 216
Heartbeat CPU 0 instructions: 94000000 cycles: 746294462 heartbeat IPC: 0.114302 cumulative IPC: 0.113336 (Simulation time: 0 hr 57 min 16 sec) 
select_counter is 823
Heartbeat CPU 0 instructions: 95000000 cycles: 755305340 heartbeat IPC: 0.110977 cumulative IPC: 0.113308 (Simulation time: 0 hr 57 min 22 sec) 
select_counter is 415
Heartbeat CPU 0 instructions: 96000000 cycles: 763319950 heartbeat IPC: 0.124772 cumulative IPC: 0.113429 (Simulation time: 0 hr 57 min 27 sec) 
select_counter is 139
Heartbeat CPU 0 instructions: 97000000 cycles: 771915103 heartbeat IPC: 0.116345 cumulative IPC: 0.113462 (Simulation time: 0 hr 57 min 33 sec) 
select_counter is 643
Heartbeat CPU 0 instructions: 98000000 cycles: 779931053 heartbeat IPC: 0.124751 cumulative IPC: 0.113579 (Simulation time: 0 hr 57 min 38 sec) 
select_counter is 93
Heartbeat CPU 0 instructions: 99000000 cycles: 788858361 heartbeat IPC: 0.112016 cumulative IPC: 0.113561 (Simulation time: 0 hr 57 min 43 sec) 
select_counter is 489
Heartbeat CPU 0 instructions: 100000000 cycles: 796756709 heartbeat IPC: 0.126609 cumulative IPC: 0.113691 (Simulation time: 0 hr 57 min 49 sec) 
select_counter is 918
Heartbeat CPU 0 instructions: 101000002 cycles: 806026668 heartbeat IPC: 0.107876 cumulative IPC: 0.113624 (Simulation time: 0 hr 57 min 54 sec) 
select_counter is 505
Heartbeat CPU 0 instructions: 102000002 cycles: 813883326 heartbeat IPC: 0.127281 cumulative IPC: 0.113756 (Simulation time: 0 hr 58 min 0 sec) 
select_counter is 104
Heartbeat CPU 0 instructions: 103000000 cycles: 823022637 heartbeat IPC: 0.109417 cumulative IPC: 0.113708 (Simulation time: 0 hr 58 min 5 sec) 
select_counter is 885
Heartbeat CPU 0 instructions: 104000000 cycles: 832300871 heartbeat IPC: 0.107779 cumulative IPC: 0.113641 (Simulation time: 0 hr 58 min 11 sec) 
select_counter is 674
Heartbeat CPU 0 instructions: 105000000 cycles: 841062577 heartbeat IPC: 0.114133 cumulative IPC: 0.113647 (Simulation time: 0 hr 58 min 16 sec) 
select_counter is 363
Heartbeat CPU 0 instructions: 106000002 cycles: 848952234 heartbeat IPC: 0.126748 cumulative IPC: 0.113769 (Simulation time: 0 hr 58 min 22 sec) 
select_counter is 40
Heartbeat CPU 0 instructions: 107000003 cycles: 858165298 heartbeat IPC: 0.108542 cumulative IPC: 0.113713 (Simulation time: 0 hr 58 min 27 sec) 
select_counter is 692
Heartbeat CPU 0 instructions: 108000000 cycles: 867090003 heartbeat IPC: 0.112048 cumulative IPC: 0.113695 (Simulation time: 0 hr 58 min 33 sec) 
select_counter is 336
Heartbeat CPU 0 instructions: 109000000 cycles: 875184437 heartbeat IPC: 0.123542 cumulative IPC: 0.113787 (Simulation time: 0 hr 58 min 38 sec) 
select_counter is 875
Heartbeat CPU 0 instructions: 110000000 cycles: 883617421 heartbeat IPC: 0.118582 cumulative IPC: 0.113833 (Simulation time: 0 hr 58 min 44 sec) 
select_counter is 188
Finished CPU 0 instructions: 100000000 cycles: 878479680 cummulative IPC: 0.113833 (Simulation time: 0 hr 58 min 44 sec) 

ChampSim completed all CPUs

Region of Interest Statistics

CPU 0 cummulative IPC: 0.113833 instructions: 100000000 cycles: 878479680
LLC TOTAL     ACCESS:   26961577  HIT:   12242863  MISS:   14718714
LLC LOAD      ACCESS:   11720028  HIT:    9155867  MISS:    2564161
LLC RFO       ACCESS:      27365  HIT:      12863  MISS:      14502
LLC PREFETCH  ACCESS:   14880414  HIT:    2797751  MISS:   12082663
LLC WRITEBACK ACCESS:     333770  HIT:     276382  MISS:      57388
Ship samples: size is 64
22, 54, 65, 123, 153, 189, 215, 240, 287, 318, 351, 376, 386, 425, 461, 500, 537, 560, 607, 637, 650, 692, 729, 743, 772, 803, 862, 864, 913, 933, 990, 999, 1052, 1056, 1090, 1141, 1181, 1210, 1222, 1276, 1304, 1317, 1364, 1402, 1422, 1442, 1486, 1512, 1554, 1581, 1605, 1660, 1665, 1726, 1731, 1766, 1793, 1825, 1862, 1906, 1927, 1956, 2009, 2019, 
Ship duel samples: size is 32
22, 65, 153, 215, 287, 351, 386, 461, 537, 607, 650, 729, 772, 862, 913, 990, 1052, 1090, 1181, 1222, 1304, 1364, 1422, 1486, 1554, 1605, 1665, 1731, 1793, 1862, 1927, 2009, 
Lime duel samples: size is 32
35, 104, 143, 227, 261, 355, 411, 476, 567, 578, 679, 751, 824, 867, 937, 1013, 1074, 1136, 1155, 1227, 1283, 1401, 1429, 1500, 1565, 1648, 1705, 1751, 1819, 1902, 1959, 2046, 
Lime samples: size is 15
35, 143, 261, 411, 567, 679, 824, 937, 1074, 1155, 1283, 1429, 1565, 1705, 1819, 
Insertion Distribution: 
	LOAD 182414 0 0 0 0 0 166739 623671 
	RFO 1976 0 0 0 0 0 4968 3152 
	PREF 0 413451 0 0 0 0 1824704 4015590 
	WRITEBACK 0 0 0 0 0 0 0 45545 
Total Prefetch Downgrades: 938642
