
*** ChampSim Multicore Out-of-Order Simulator ***

Warmup Instructions: 10000000
Simulation Instructions: 100000000
Configuration: 2
Number of CPUs: 1
LLC sets: 2048
LLC ways: 16
Off-chip DRAM Channels: 1 Width: 64-bit Data Rate: 1600 MT/s

CPU 0 runs /datasets/cs240c-wi22-a00-public/data/Assignment2-gz/soplex_217B.trace.gz
CPU 0 L1D next line prefetcher
CPU 0 L2C IP-based stride prefetcher
Inside while loopHeartbeat CPU 0 instructions: 1000002 cycles: 441512 heartbeat IPC: 2.26495 cumulative IPC: 2.26495 (Simulation time: 0 hr 0 min 32 sec) 
select_counter is 319
Heartbeat CPU 0 instructions: 2000003 cycles: 800738 heartbeat IPC: 2.78377 cumulative IPC: 2.4977 (Simulation time: 0 hr 0 min 59 sec) 
select_counter is 497
Heartbeat CPU 0 instructions: 3000002 cycles: 1245830 heartbeat IPC: 2.24672 cumulative IPC: 2.40803 (Simulation time: 0 hr 1 min 28 sec) 
select_counter is 656
Heartbeat CPU 0 instructions: 4000000 cycles: 1673833 heartbeat IPC: 2.33643 cumulative IPC: 2.38972 (Simulation time: 0 hr 1 min 58 sec) 
select_counter is 1022
Heartbeat CPU 0 instructions: 5000001 cycles: 2057883 heartbeat IPC: 2.60383 cumulative IPC: 2.42968 (Simulation time: 0 hr 2 min 24 sec) 
select_counter is 1022
Heartbeat CPU 0 instructions: 6000000 cycles: 2432151 heartbeat IPC: 2.67188 cumulative IPC: 2.46695 (Simulation time: 0 hr 2 min 48 sec) 
select_counter is 995
Heartbeat CPU 0 instructions: 7000003 cycles: 2962036 heartbeat IPC: 1.88721 cumulative IPC: 2.36324 (Simulation time: 0 hr 3 min 14 sec) 
select_counter is 1023
Heartbeat CPU 0 instructions: 8000000 cycles: 3409930 heartbeat IPC: 2.23266 cumulative IPC: 2.34609 (Simulation time: 0 hr 3 min 48 sec) 
select_counter is 712
Heartbeat CPU 0 instructions: 9000001 cycles: 3834314 heartbeat IPC: 2.35636 cumulative IPC: 2.34723 (Simulation time: 0 hr 4 min 17 sec) 
select_counter is 730
Heartbeat CPU 0 instructions: 10000000 cycles: 4246822 heartbeat IPC: 2.42419 cumulative IPC: 2.3547 (Simulation time: 0 hr 4 min 43 sec) 
select_counter is 539

Warmup complete CPU 0 instructions: 10000004 cycles: 4246823 (Simulation time: 0 hr 4 min 43 sec) 

Heartbeat CPU 0 instructions: 11000002 cycles: 8119249 heartbeat IPC: 0.258236 cumulative IPC: 0.258236 (Simulation time: 0 hr 5 min 32 sec) 
select_counter is 492
Heartbeat CPU 0 instructions: 12000000 cycles: 10701727 heartbeat IPC: 0.387224 cumulative IPC: 0.309841 (Simulation time: 0 hr 6 min 3 sec) 
select_counter is 442
Heartbeat CPU 0 instructions: 13000000 cycles: 12027843 heartbeat IPC: 0.754082 cumulative IPC: 0.385553 (Simulation time: 0 hr 6 min 27 sec) 
select_counter is 447
Heartbeat CPU 0 instructions: 14000000 cycles: 14698807 heartbeat IPC: 0.374397 cumulative IPC: 0.382702 (Simulation time: 0 hr 7 min 0 sec) 
select_counter is 387
Heartbeat CPU 0 instructions: 15000000 cycles: 17367236 heartbeat IPC: 0.374752 cumulative IPC: 0.381085 (Simulation time: 0 hr 7 min 37 sec) 
select_counter is 245
Heartbeat CPU 0 instructions: 16000000 cycles: 20964860 heartbeat IPC: 0.277961 cumulative IPC: 0.358894 (Simulation time: 0 hr 8 min 26 sec) 
select_counter is 137
Heartbeat CPU 0 instructions: 17000002 cycles: 23282987 heartbeat IPC: 0.431384 cumulative IPC: 0.367721 (Simulation time: 0 hr 8 min 59 sec) 
select_counter is 39
Heartbeat CPU 0 instructions: 18000003 cycles: 25815869 heartbeat IPC: 0.394808 cumulative IPC: 0.370902 (Simulation time: 0 hr 9 min 38 sec) 
select_counter is 890
Heartbeat CPU 0 instructions: 19000000 cycles: 29439087 heartbeat IPC: 0.275997 cumulative IPC: 0.357252 (Simulation time: 0 hr 10 min 20 sec) 
select_counter is 620
Heartbeat CPU 0 instructions: 20000000 cycles: 30796094 heartbeat IPC: 0.736916 cumulative IPC: 0.376658 (Simulation time: 0 hr 10 min 43 sec) 
select_counter is 604
Heartbeat CPU 0 instructions: 21000000 cycles: 32247117 heartbeat IPC: 0.689169 cumulative IPC: 0.392853 (Simulation time: 0 hr 11 min 8 sec) 
select_counter is 544
Heartbeat CPU 0 instructions: 22000001 cycles: 35577533 heartbeat IPC: 0.300263 cumulative IPC: 0.383011 (Simulation time: 0 hr 11 min 46 sec) 
select_counter is 424
Heartbeat CPU 0 instructions: 23000003 cycles: 38803236 heartbeat IPC: 0.310011 cumulative IPC: 0.376196 (Simulation time: 0 hr 12 min 26 sec) 
select_counter is 186
Heartbeat CPU 0 instructions: 24000000 cycles: 42208969 heartbeat IPC: 0.293622 cumulative IPC: 0.368788 (Simulation time: 0 hr 13 min 10 sec) 
select_counter is 138
Heartbeat CPU 0 instructions: 25000001 cycles: 43665382 heartbeat IPC: 0.686619 cumulative IPC: 0.380531 (Simulation time: 0 hr 13 min 42 sec) 
select_counter is 976
Heartbeat CPU 0 instructions: 26000003 cycles: 47536393 heartbeat IPC: 0.258331 cumulative IPC: 0.369604 (Simulation time: 0 hr 14 min 30 sec) 
select_counter is 691
Heartbeat CPU 0 instructions: 27000002 cycles: 49951580 heartbeat IPC: 0.414046 cumulative IPC: 0.371952 (Simulation time: 0 hr 15 min 3 sec) 
select_counter is 619
Heartbeat CPU 0 instructions: 28000000 cycles: 51291166 heartbeat IPC: 0.746498 cumulative IPC: 0.382618 (Simulation time: 0 hr 15 min 26 sec) 
select_counter is 592
Heartbeat CPU 0 instructions: 29000002 cycles: 54033482 heartbeat IPC: 0.364656 cumulative IPC: 0.381628 (Simulation time: 0 hr 16 min 0 sec) 
select_counter is 512
Heartbeat CPU 0 instructions: 30000002 cycles: 56854178 heartbeat IPC: 0.354522 cumulative IPC: 0.380175 (Simulation time: 0 hr 16 min 39 sec) 
select_counter is 378
Heartbeat CPU 0 instructions: 31000000 cycles: 60076949 heartbeat IPC: 0.310291 cumulative IPC: 0.376141 (Simulation time: 0 hr 17 min 21 sec) 
select_counter is 292
Heartbeat CPU 0 instructions: 32000000 cycles: 61822844 heartbeat IPC: 0.572772 cumulative IPC: 0.382103 (Simulation time: 0 hr 17 min 55 sec) 
select_counter is 121
Heartbeat CPU 0 instructions: 33000001 cycles: 65446457 heartbeat IPC: 0.275968 cumulative IPC: 0.375819 (Simulation time: 0 hr 18 min 38 sec) 
select_counter is 987
Heartbeat CPU 0 instructions: 34000000 cycles: 68258345 heartbeat IPC: 0.355633 cumulative IPC: 0.374932 (Simulation time: 0 hr 19 min 14 sec) 
select_counter is 850
Heartbeat CPU 0 instructions: 35000002 cycles: 69619016 heartbeat IPC: 0.734933 cumulative IPC: 0.382426 (Simulation time: 0 hr 19 min 37 sec) 
select_counter is 823
Heartbeat CPU 0 instructions: 36000000 cycles: 71868453 heartbeat IPC: 0.444555 cumulative IPC: 0.384492 (Simulation time: 0 hr 20 min 7 sec) 
select_counter is 747
Heartbeat CPU 0 instructions: 37000002 cycles: 74505361 heartbeat IPC: 0.379233 cumulative IPC: 0.384295 (Simulation time: 0 hr 20 min 46 sec) 
select_counter is 657
Heartbeat CPU 0 instructions: 38000000 cycles: 78193542 heartbeat IPC: 0.271136 cumulative IPC: 0.378651 (Simulation time: 0 hr 21 min 31 sec) 
select_counter is 450
Heartbeat CPU 0 instructions: 39000001 cycles: 80294106 heartbeat IPC: 0.476063 cumulative IPC: 0.381342 (Simulation time: 0 hr 22 min 4 sec) 
select_counter is 325
Heartbeat CPU 0 instructions: 40000000 cycles: 83414337 heartbeat IPC: 0.320489 cumulative IPC: 0.378943 (Simulation time: 0 hr 22 min 47 sec) 
select_counter is 110
Heartbeat CPU 0 instructions: 41000000 cycles: 86455862 heartbeat IPC: 0.328782 cumulative IPC: 0.377087 (Simulation time: 0 hr 23 min 24 sec) 
select_counter is 993
Heartbeat CPU 0 instructions: 42000002 cycles: 87789315 heartbeat IPC: 0.749934 cumulative IPC: 0.383039 (Simulation time: 0 hr 23 min 46 sec) 
select_counter is 984
Heartbeat CPU 0 instructions: 43000001 cycles: 89595667 heartbeat IPC: 0.553601 cumulative IPC: 0.386648 (Simulation time: 0 hr 24 min 15 sec) 
select_counter is 933
Heartbeat CPU 0 instructions: 44000000 cycles: 92396393 heartbeat IPC: 0.35705 cumulative IPC: 0.385708 (Simulation time: 0 hr 24 min 53 sec) 
select_counter is 912
Heartbeat CPU 0 instructions: 45000001 cycles: 96145374 heartbeat IPC: 0.266739 cumulative IPC: 0.380855 (Simulation time: 0 hr 25 min 37 sec) 
select_counter is 799
Heartbeat CPU 0 instructions: 46000000 cycles: 99082664 heartbeat IPC: 0.34045 cumulative IPC: 0.379603 (Simulation time: 0 hr 26 min 20 sec) 
select_counter is 771
Heartbeat CPU 0 instructions: 47000001 cycles: 100855181 heartbeat IPC: 0.56417 cumulative IPC: 0.38299 (Simulation time: 0 hr 26 min 53 sec) 
select_counter is 633
Heartbeat CPU 0 instructions: 48000000 cycles: 104348360 heartbeat IPC: 0.286272 cumulative IPC: 0.379615 (Simulation time: 0 hr 27 min 37 sec) 
select_counter is 550
Heartbeat CPU 0 instructions: 49000000 cycles: 106915917 heartbeat IPC: 0.389475 cumulative IPC: 0.379861 (Simulation time: 0 hr 28 min 12 sec) 
select_counter is 528
Heartbeat CPU 0 instructions: 50000001 cycles: 108238533 heartbeat IPC: 0.756078 cumulative IPC: 0.384646 (Simulation time: 0 hr 28 min 33 sec) 
select_counter is 518
Heartbeat CPU 0 instructions: 51000000 cycles: 110795089 heartbeat IPC: 0.391151 cumulative IPC: 0.384802 (Simulation time: 0 hr 29 min 4 sec) 
select_counter is 490
Heartbeat CPU 0 instructions: 52000000 cycles: 113515286 heartbeat IPC: 0.36762 cumulative IPC: 0.384374 (Simulation time: 0 hr 29 min 44 sec) 
select_counter is 401
Heartbeat CPU 0 instructions: 53000000 cycles: 116760138 heartbeat IPC: 0.30818 cumulative IPC: 0.382177 (Simulation time: 0 hr 30 min 27 sec) 
select_counter is 218
Heartbeat CPU 0 instructions: 54000000 cycles: 118675264 heartbeat IPC: 0.522159 cumulative IPC: 0.38452 (Simulation time: 0 hr 31 min 1 sec) 
select_counter is 103
Heartbeat CPU 0 instructions: 55000000 cycles: 122054865 heartbeat IPC: 0.295893 cumulative IPC: 0.381977 (Simulation time: 0 hr 31 min 47 sec) 
select_counter is 906
Heartbeat CPU 0 instructions: 56000000 cycles: 124954649 heartbeat IPC: 0.344853 cumulative IPC: 0.381085 (Simulation time: 0 hr 32 min 24 sec) 
select_counter is 770
Heartbeat CPU 0 instructions: 57000003 cycles: 126298668 heartbeat IPC: 0.744039 cumulative IPC: 0.385082 (Simulation time: 0 hr 32 min 48 sec) 
select_counter is 756
Heartbeat CPU 0 instructions: 58000000 cycles: 128497656 heartbeat IPC: 0.454753 cumulative IPC: 0.386315 (Simulation time: 0 hr 33 min 19 sec) 
select_counter is 694
Heartbeat CPU 0 instructions: 59000001 cycles: 131070674 heartbeat IPC: 0.388649 cumulative IPC: 0.386363 (Simulation time: 0 hr 33 min 57 sec) 
select_counter is 677
Heartbeat CPU 0 instructions: 60000000 cycles: 134630875 heartbeat IPC: 0.280883 cumulative IPC: 0.383482 (Simulation time: 0 hr 34 min 45 sec) 
select_counter is 526
Heartbeat CPU 0 instructions: 61000000 cycles: 136921515 heartbeat IPC: 0.436559 cumulative IPC: 0.384399 (Simulation time: 0 hr 35 min 22 sec) 
select_counter is 387
Heartbeat CPU 0 instructions: 62000001 cycles: 139819945 heartbeat IPC: 0.345015 cumulative IPC: 0.383557 (Simulation time: 0 hr 36 min 4 sec) 
select_counter is 296
Heartbeat CPU 0 instructions: 63000001 cycles: 143412650 heartbeat IPC: 0.278342 cumulative IPC: 0.380841 (Simulation time: 0 hr 36 min 45 sec) 
select_counter is 373
Heartbeat CPU 0 instructions: 64000000 cycles: 144756938 heartbeat IPC: 0.743887 cumulative IPC: 0.384314 (Simulation time: 0 hr 37 min 7 sec) 
select_counter is 381
Heartbeat CPU 0 instructions: 65000000 cycles: 146318538 heartbeat IPC: 0.640369 cumulative IPC: 0.387128 (Simulation time: 0 hr 37 min 33 sec) 
select_counter is 371
Heartbeat CPU 0 instructions: 66000002 cycles: 149365551 heartbeat IPC: 0.328191 cumulative IPC: 0.385891 (Simulation time: 0 hr 38 min 8 sec) 
select_counter is 188
Heartbeat CPU 0 instructions: 67000000 cycles: 152435257 heartbeat IPC: 0.325763 cumulative IPC: 0.384645 (Simulation time: 0 hr 38 min 48 sec) 
select_counter is 9
Heartbeat CPU 0 instructions: 68000000 cycles: 158529113 heartbeat IPC: 0.1641 cumulative IPC: 0.375934 (Simulation time: 0 hr 39 min 35 sec) 
select_counter is 141
Heartbeat CPU 0 instructions: 69000001 cycles: 162912078 heartbeat IPC: 0.228156 cumulative IPC: 0.371852 (Simulation time: 0 hr 40 min 17 sec) 
select_counter is 423
Heartbeat CPU 0 instructions: 70000002 cycles: 167095991 heartbeat IPC: 0.239011 cumulative IPC: 0.368439 (Simulation time: 0 hr 41 min 0 sec) 
select_counter is 790
Heartbeat CPU 0 instructions: 71000002 cycles: 171657561 heartbeat IPC: 0.219223 cumulative IPC: 0.364373 (Simulation time: 0 hr 41 min 44 sec) 
select_counter is 1015
Heartbeat CPU 0 instructions: 72000000 cycles: 175117948 heartbeat IPC: 0.288984 cumulative IPC: 0.362847 (Simulation time: 0 hr 42 min 19 sec) 
select_counter is 1019
Heartbeat CPU 0 instructions: 73000000 cycles: 178478187 heartbeat IPC: 0.297598 cumulative IPC: 0.361588 (Simulation time: 0 hr 42 min 54 sec) 
select_counter is 979
Heartbeat CPU 0 instructions: 74000000 cycles: 182339380 heartbeat IPC: 0.258987 cumulative IPC: 0.359364 (Simulation time: 0 hr 43 min 29 sec) 
select_counter is 901
Heartbeat CPU 0 instructions: 75000002 cycles: 186314383 heartbeat IPC: 0.251573 cumulative IPC: 0.35701 (Simulation time: 0 hr 44 min 6 sec) 
select_counter is 792
Heartbeat CPU 0 instructions: 76000000 cycles: 188940060 heartbeat IPC: 0.380853 cumulative IPC: 0.357349 (Simulation time: 0 hr 44 min 36 sec) 
select_counter is 786
Heartbeat CPU 0 instructions: 77000000 cycles: 192620267 heartbeat IPC: 0.271724 cumulative IPC: 0.355676 (Simulation time: 0 hr 45 min 13 sec) 
select_counter is 757
Heartbeat CPU 0 instructions: 78000002 cycles: 194820556 heartbeat IPC: 0.454487 cumulative IPC: 0.356817 (Simulation time: 0 hr 45 min 45 sec) 
select_counter is 780
Heartbeat CPU 0 instructions: 79000002 cycles: 196673580 heartbeat IPC: 0.539658 cumulative IPC: 0.358578 (Simulation time: 0 hr 46 min 13 sec) 
select_counter is 851
Heartbeat CPU 0 instructions: 80000000 cycles: 197840768 heartbeat IPC: 0.856758 cumulative IPC: 0.361582 (Simulation time: 0 hr 46 min 35 sec) 
select_counter is 861
Heartbeat CPU 0 instructions: 81000003 cycles: 199997168 heartbeat IPC: 0.463737 cumulative IPC: 0.362707 (Simulation time: 0 hr 47 min 3 sec) 
select_counter is 970
Heartbeat CPU 0 instructions: 82000001 cycles: 202977020 heartbeat IPC: 0.335586 cumulative IPC: 0.3623 (Simulation time: 0 hr 47 min 33 sec) 
select_counter is 852
Heartbeat CPU 0 instructions: 83000002 cycles: 205717931 heartbeat IPC: 0.364843 cumulative IPC: 0.362335 (Simulation time: 0 hr 47 min 59 sec) 
select_counter is 665
Heartbeat CPU 0 instructions: 84000000 cycles: 208081251 heartbeat IPC: 0.423133 cumulative IPC: 0.36304 (Simulation time: 0 hr 48 min 21 sec) 
select_counter is 504
Heartbeat CPU 0 instructions: 85000000 cycles: 209631483 heartbeat IPC: 0.645065 cumulative IPC: 0.365168 (Simulation time: 0 hr 48 min 42 sec) 
select_counter is 424
Heartbeat CPU 0 instructions: 86000001 cycles: 213610517 heartbeat IPC: 0.251318 cumulative IPC: 0.363005 (Simulation time: 0 hr 49 min 8 sec) 
select_counter is 40
Heartbeat CPU 0 instructions: 87000000 cycles: 216242445 heartbeat IPC: 0.379949 cumulative IPC: 0.363215 (Simulation time: 0 hr 49 min 24 sec) 
select_counter is 984
Heartbeat CPU 0 instructions: 88000000 cycles: 217600910 heartbeat IPC: 0.736125 cumulative IPC: 0.365589 (Simulation time: 0 hr 49 min 37 sec) 
select_counter is 960
Heartbeat CPU 0 instructions: 89000003 cycles: 220227158 heartbeat IPC: 0.380773 cumulative IPC: 0.365774 (Simulation time: 0 hr 49 min 54 sec) 
select_counter is 865
Heartbeat CPU 0 instructions: 90000002 cycles: 223042323 heartbeat IPC: 0.355219 cumulative IPC: 0.365638 (Simulation time: 0 hr 50 min 13 sec) 
select_counter is 672
Heartbeat CPU 0 instructions: 91000001 cycles: 226451148 heartbeat IPC: 0.293356 cumulative IPC: 0.364529 (Simulation time: 0 hr 50 min 33 sec) 
select_counter is 386
Heartbeat CPU 0 instructions: 92000000 cycles: 228299960 heartbeat IPC: 0.540887 cumulative IPC: 0.365985 (Simulation time: 0 hr 50 min 50 sec) 
select_counter is 284
Heartbeat CPU 0 instructions: 93000000 cycles: 231767632 heartbeat IPC: 0.288378 cumulative IPC: 0.364802 (Simulation time: 0 hr 51 min 11 sec) 
select_counter is 805
Heartbeat CPU 0 instructions: 94000001 cycles: 234670135 heartbeat IPC: 0.344531 cumulative IPC: 0.364546 (Simulation time: 0 hr 51 min 28 sec) 
select_counter is 626
Heartbeat CPU 0 instructions: 95000003 cycles: 236012756 heartbeat IPC: 0.744813 cumulative IPC: 0.366749 (Simulation time: 0 hr 51 min 38 sec) 
select_counter is 610
Heartbeat CPU 0 instructions: 96000000 cycles: 238257770 heartbeat IPC: 0.44543 cumulative IPC: 0.367504 (Simulation time: 0 hr 51 min 51 sec) 
select_counter is 537
Heartbeat CPU 0 instructions: 97000002 cycles: 240765407 heartbeat IPC: 0.398783 cumulative IPC: 0.367836 (Simulation time: 0 hr 52 min 8 sec) 
select_counter is 495
Heartbeat CPU 0 instructions: 98000003 cycles: 244690361 heartbeat IPC: 0.25478 cumulative IPC: 0.36599 (Simulation time: 0 hr 52 min 29 sec) 
select_counter is 333
Heartbeat CPU 0 instructions: 99000000 cycles: 247566247 heartbeat IPC: 0.347718 cumulative IPC: 0.365774 (Simulation time: 0 hr 52 min 46 sec) 
select_counter is 152
Heartbeat CPU 0 instructions: 100000000 cycles: 249447413 heartbeat IPC: 0.531585 cumulative IPC: 0.367046 (Simulation time: 0 hr 53 min 1 sec) 
select_counter is 54
Heartbeat CPU 0 instructions: 101000001 cycles: 253290353 heartbeat IPC: 0.260218 cumulative IPC: 0.365398 (Simulation time: 0 hr 53 min 19 sec) 
select_counter is 988
Heartbeat CPU 0 instructions: 102000000 cycles: 254898958 heartbeat IPC: 0.621656 cumulative IPC: 0.367043 (Simulation time: 0 hr 53 min 27 sec) 
select_counter is 962
Heartbeat CPU 0 instructions: 103000001 cycles: 256187159 heartbeat IPC: 0.776277 cumulative IPC: 0.369135 (Simulation time: 0 hr 53 min 36 sec) 
select_counter is 941
Heartbeat CPU 0 instructions: 104000000 cycles: 259481323 heartbeat IPC: 0.303567 cumulative IPC: 0.368289 (Simulation time: 0 hr 53 min 49 sec) 
select_counter is 857
Heartbeat CPU 0 instructions: 105000003 cycles: 262675293 heartbeat IPC: 0.313091 cumulative IPC: 0.367607 (Simulation time: 0 hr 54 min 4 sec) 
select_counter is 770
Heartbeat CPU 0 instructions: 106000000 cycles: 265481503 heartbeat IPC: 0.356351 cumulative IPC: 0.367486 (Simulation time: 0 hr 54 min 16 sec) 
select_counter is 533
Heartbeat CPU 0 instructions: 107000000 cycles: 267282394 heartbeat IPC: 0.555281 cumulative IPC: 0.368771 (Simulation time: 0 hr 54 min 27 sec) 
select_counter is 392
Heartbeat CPU 0 instructions: 108000000 cycles: 271413077 heartbeat IPC: 0.242091 cumulative IPC: 0.366813 (Simulation time: 0 hr 54 min 40 sec) 
select_counter is 101
Heartbeat CPU 0 instructions: 109000000 cycles: 273377844 heartbeat IPC: 0.508966 cumulative IPC: 0.367851 (Simulation time: 0 hr 54 min 46 sec) 
select_counter is 88
Heartbeat CPU 0 instructions: 110000002 cycles: 274742253 heartbeat IPC: 0.73292 cumulative IPC: 0.369692 (Simulation time: 0 hr 54 min 52 sec) 
select_counter is 71
Finished CPU 0 instructions: 100000000 cycles: 270495434 cummulative IPC: 0.369692 (Simulation time: 0 hr 54 min 52 sec) 

ChampSim completed all CPUs

Region of Interest Statistics

CPU 0 cummulative IPC: 0.369692 instructions: 100000000 cycles: 270495434
LLC TOTAL     ACCESS:    8717508  HIT:    4430003  MISS:    4287505
LLC LOAD      ACCESS:    2239800  HIT:    1007350  MISS:    1232450
LLC RFO       ACCESS:     764936  HIT:     299297  MISS:     465639
LLC PREFETCH  ACCESS:    3552276  HIT:    1469806  MISS:    2082470
LLC WRITEBACK ACCESS:    2160496  HIT:    1653550  MISS:     506946
Ship samples: size is 64
8, 52, 73, 116, 133, 182, 213, 231, 278, 314, 323, 364, 394, 437, 471, 498, 543, 573, 576, 621, 666, 682, 721, 747, 769, 804, 861, 879, 916, 941, 983, 1001, 1047, 1068, 1102, 1133, 1153, 1192, 1236, 1272, 1282, 1336, 1348, 1388, 1421, 1467, 1502, 1516, 1560, 1599, 1626, 1650, 1673, 1707, 1757, 1770, 1807, 1851, 1881, 1892, 1928, 1968, 1997, 2047, 
Ship duel samples: size is 32
8, 73, 133, 213, 278, 323, 394, 471, 543, 576, 666, 721, 769, 861, 916, 983, 1047, 1102, 1153, 1236, 1282, 1348, 1421, 1502, 1560, 1626, 1673, 1757, 1807, 1881, 1928, 1997, 
Lime duel samples: size is 32
61, 122, 164, 249, 268, 369, 397, 481, 532, 592, 673, 704, 828, 885, 912, 977, 1067, 1095, 1194, 1221, 1326, 1390, 1469, 1481, 1539, 1617, 1719, 1779, 1810, 1870, 1936, 2000, 
Lime samples: size is 15
61, 164, 268, 397, 532, 673, 828, 912, 1067, 1194, 1326, 1469, 1539, 1719, 1810, 
Insertion Distribution: 
	LOAD 190674 0 0 0 0 0 80125 370381 
	RFO 97708 0 0 0 0 0 35407 116466 
	PREF 0 66647 0 0 0 0 135404 847219 
	WRITEBACK 0 0 0 0 0 0 0 276021 
Total Prefetch Downgrades: 77343
