
*** ChampSim Multicore Out-of-Order Simulator ***

Warmup Instructions: 10000000
Simulation Instructions: 100000000
Configuration: 2
Number of CPUs: 1
LLC sets: 2048
LLC ways: 16
Off-chip DRAM Channels: 1 Width: 64-bit Data Rate: 1600 MT/s

CPU 0 runs /datasets/cs240c-wi22-a00-public/data/Assignment2-gz/cactusADM_734B.trace.gz
CPU 0 L1D next line prefetcher
CPU 0 L2C IP-based stride prefetcher
Inside while loopHeartbeat CPU 0 instructions: 1000003 cycles: 592726 heartbeat IPC: 1.68713 cumulative IPC: 1.68713 (Simulation time: 0 hr 0 min 34 sec) 
select_counter is 516
Heartbeat CPU 0 instructions: 2000001 cycles: 1185927 heartbeat IPC: 1.68577 cumulative IPC: 1.68645 (Simulation time: 0 hr 1 min 6 sec) 
select_counter is 513
Heartbeat CPU 0 instructions: 3000003 cycles: 1778979 heartbeat IPC: 1.6862 cumulative IPC: 1.68636 (Simulation time: 0 hr 1 min 38 sec) 
select_counter is 506
Heartbeat CPU 0 instructions: 4000000 cycles: 2371929 heartbeat IPC: 1.68648 cumulative IPC: 1.68639 (Simulation time: 0 hr 2 min 10 sec) 
select_counter is 510
Heartbeat CPU 0 instructions: 5000000 cycles: 2965279 heartbeat IPC: 1.68535 cumulative IPC: 1.68618 (Simulation time: 0 hr 2 min 41 sec) 
select_counter is 517
Heartbeat CPU 0 instructions: 6000002 cycles: 3558551 heartbeat IPC: 1.68557 cumulative IPC: 1.68608 (Simulation time: 0 hr 3 min 9 sec) 
select_counter is 511
Heartbeat CPU 0 instructions: 7000000 cycles: 4151394 heartbeat IPC: 1.68678 cumulative IPC: 1.68618 (Simulation time: 0 hr 3 min 41 sec) 
select_counter is 514
Heartbeat CPU 0 instructions: 8000000 cycles: 4744343 heartbeat IPC: 1.68649 cumulative IPC: 1.68622 (Simulation time: 0 hr 4 min 13 sec) 
select_counter is 524
Heartbeat CPU 0 instructions: 9000001 cycles: 5337493 heartbeat IPC: 1.68592 cumulative IPC: 1.68619 (Simulation time: 0 hr 4 min 44 sec) 
select_counter is 532
Heartbeat CPU 0 instructions: 10000003 cycles: 5958967 heartbeat IPC: 1.60908 cumulative IPC: 1.67814 (Simulation time: 0 hr 5 min 13 sec) 
select_counter is 549

Warmup complete CPU 0 instructions: 10000003 cycles: 5958967 (Simulation time: 0 hr 5 min 13 sec) 

Heartbeat CPU 0 instructions: 11000002 cycles: 12550402 heartbeat IPC: 0.151712 cumulative IPC: 0.151712 (Simulation time: 0 hr 5 min 53 sec) 
select_counter is 647
Heartbeat CPU 0 instructions: 12000000 cycles: 14292663 heartbeat IPC: 0.573966 cumulative IPC: 0.239989 (Simulation time: 0 hr 6 min 28 sec) 
select_counter is 657
Heartbeat CPU 0 instructions: 13000002 cycles: 15980307 heartbeat IPC: 0.592543 cumulative IPC: 0.299361 (Simulation time: 0 hr 7 min 3 sec) 
select_counter is 668
Heartbeat CPU 0 instructions: 14000000 cycles: 17665835 heartbeat IPC: 0.593285 cumulative IPC: 0.34168 (Simulation time: 0 hr 7 min 38 sec) 
select_counter is 691
Heartbeat CPU 0 instructions: 15000003 cycles: 19405495 heartbeat IPC: 0.574827 cumulative IPC: 0.371843 (Simulation time: 0 hr 8 min 14 sec) 
select_counter is 707
Heartbeat CPU 0 instructions: 16000000 cycles: 21148047 heartbeat IPC: 0.573869 cumulative IPC: 0.39502 (Simulation time: 0 hr 8 min 45 sec) 
select_counter is 725
Heartbeat CPU 0 instructions: 17000002 cycles: 22882131 heartbeat IPC: 0.576674 cumulative IPC: 0.413634 (Simulation time: 0 hr 9 min 19 sec) 
select_counter is 736
Heartbeat CPU 0 instructions: 18000001 cycles: 24540247 heartbeat IPC: 0.603094 cumulative IPC: 0.430541 (Simulation time: 0 hr 9 min 53 sec) 
select_counter is 753
Heartbeat CPU 0 instructions: 19000000 cycles: 26257100 heartbeat IPC: 0.58246 cumulative IPC: 0.44339 (Simulation time: 0 hr 10 min 25 sec) 
select_counter is 776
Heartbeat CPU 0 instructions: 20000000 cycles: 27999953 heartbeat IPC: 0.573772 cumulative IPC: 0.4537 (Simulation time: 0 hr 10 min 57 sec) 
select_counter is 802
Heartbeat CPU 0 instructions: 21000002 cycles: 29743428 heartbeat IPC: 0.573568 cumulative IPC: 0.462487 (Simulation time: 0 hr 11 min 30 sec) 
select_counter is 817
Heartbeat CPU 0 instructions: 22000000 cycles: 31452679 heartbeat IPC: 0.58505 cumulative IPC: 0.470704 (Simulation time: 0 hr 12 min 5 sec) 
select_counter is 844
Heartbeat CPU 0 instructions: 23000001 cycles: 33116995 heartbeat IPC: 0.600848 cumulative IPC: 0.47868 (Simulation time: 0 hr 12 min 36 sec) 
select_counter is 868
Heartbeat CPU 0 instructions: 24000000 cycles: 40792994 heartbeat IPC: 0.130276 cumulative IPC: 0.401906 (Simulation time: 0 hr 13 min 15 sec) 
select_counter is 857
Heartbeat CPU 0 instructions: 25000000 cycles: 42533743 heartbeat IPC: 0.574465 cumulative IPC: 0.410119 (Simulation time: 0 hr 13 min 48 sec) 
select_counter is 872
Heartbeat CPU 0 instructions: 26000002 cycles: 44267710 heartbeat IPC: 0.576713 cumulative IPC: 0.417659 (Simulation time: 0 hr 14 min 22 sec) 
select_counter is 869
Heartbeat CPU 0 instructions: 27000002 cycles: 45930460 heartbeat IPC: 0.601413 cumulative IPC: 0.425303 (Simulation time: 0 hr 14 min 56 sec) 
select_counter is 871
Heartbeat CPU 0 instructions: 28000000 cycles: 47655348 heartbeat IPC: 0.579747 cumulative IPC: 0.431692 (Simulation time: 0 hr 15 min 28 sec) 
select_counter is 877
Heartbeat CPU 0 instructions: 29000001 cycles: 49413564 heartbeat IPC: 0.568759 cumulative IPC: 0.437238 (Simulation time: 0 hr 16 min 1 sec) 
select_counter is 876
Heartbeat CPU 0 instructions: 30000001 cycles: 51155005 heartbeat IPC: 0.574237 cumulative IPC: 0.442517 (Simulation time: 0 hr 16 min 32 sec) 
select_counter is 877
Heartbeat CPU 0 instructions: 31000003 cycles: 52867281 heartbeat IPC: 0.584019 cumulative IPC: 0.447682 (Simulation time: 0 hr 17 min 4 sec) 
select_counter is 882
Heartbeat CPU 0 instructions: 32000000 cycles: 54525084 heartbeat IPC: 0.603206 cumulative IPC: 0.452991 (Simulation time: 0 hr 17 min 38 sec) 
select_counter is 884
Heartbeat CPU 0 instructions: 33000000 cycles: 56259757 heartbeat IPC: 0.576478 cumulative IPC: 0.457249 (Simulation time: 0 hr 18 min 11 sec) 
select_counter is 898
Heartbeat CPU 0 instructions: 34000001 cycles: 58003333 heartbeat IPC: 0.573534 cumulative IPC: 0.461145 (Simulation time: 0 hr 18 min 44 sec) 
select_counter is 911
Heartbeat CPU 0 instructions: 35000000 cycles: 59740762 heartbeat IPC: 0.575563 cumulative IPC: 0.464841 (Simulation time: 0 hr 19 min 15 sec) 
select_counter is 926
Heartbeat CPU 0 instructions: 36000000 cycles: 61423198 heartbeat IPC: 0.594376 cumulative IPC: 0.468771 (Simulation time: 0 hr 19 min 47 sec) 
select_counter is 942
Heartbeat CPU 0 instructions: 37000003 cycles: 69036291 heartbeat IPC: 0.131353 cumulative IPC: 0.428046 (Simulation time: 0 hr 20 min 28 sec) 
select_counter is 959
Heartbeat CPU 0 instructions: 38000001 cycles: 70776023 heartbeat IPC: 0.5748 cumulative IPC: 0.431985 (Simulation time: 0 hr 21 min 1 sec) 
select_counter is 973
Heartbeat CPU 0 instructions: 39000001 cycles: 72516058 heartbeat IPC: 0.574701 cumulative IPC: 0.435716 (Simulation time: 0 hr 21 min 35 sec) 
select_counter is 969
Heartbeat CPU 0 instructions: 40000000 cycles: 74232645 heartbeat IPC: 0.582551 cumulative IPC: 0.439408 (Simulation time: 0 hr 22 min 6 sec) 
select_counter is 966
Heartbeat CPU 0 instructions: 41000001 cycles: 75886810 heartbeat IPC: 0.604535 cumulative IPC: 0.443314 (Simulation time: 0 hr 22 min 40 sec) 
select_counter is 972
Heartbeat CPU 0 instructions: 42000002 cycles: 77621696 heartbeat IPC: 0.576407 cumulative IPC: 0.446536 (Simulation time: 0 hr 23 min 9 sec) 
select_counter is 969
Heartbeat CPU 0 instructions: 43000000 cycles: 79362567 heartbeat IPC: 0.574424 cumulative IPC: 0.449569 (Simulation time: 0 hr 23 min 43 sec) 
select_counter is 976
Heartbeat CPU 0 instructions: 44000000 cycles: 81102218 heartbeat IPC: 0.574828 cumulative IPC: 0.452469 (Simulation time: 0 hr 24 min 14 sec) 
select_counter is 981
Heartbeat CPU 0 instructions: 45000000 cycles: 82787048 heartbeat IPC: 0.593532 cumulative IPC: 0.455563 (Simulation time: 0 hr 24 min 45 sec) 
select_counter is 983
Heartbeat CPU 0 instructions: 46000003 cycles: 84469927 heartbeat IPC: 0.594222 cumulative IPC: 0.458535 (Simulation time: 0 hr 25 min 17 sec) 
select_counter is 999
Heartbeat CPU 0 instructions: 47000001 cycles: 86207144 heartbeat IPC: 0.575632 cumulative IPC: 0.46107 (Simulation time: 0 hr 25 min 52 sec) 
select_counter is 1012
Heartbeat CPU 0 instructions: 48000000 cycles: 87947219 heartbeat IPC: 0.574687 cumulative IPC: 0.463481 (Simulation time: 0 hr 26 min 25 sec) 
select_counter is 1010
Heartbeat CPU 0 instructions: 49000000 cycles: 89682402 heartbeat IPC: 0.576308 cumulative IPC: 0.465819 (Simulation time: 0 hr 27 min 1 sec) 
select_counter is 1021
Heartbeat CPU 0 instructions: 50000001 cycles: 97205228 heartbeat IPC: 0.132929 cumulative IPC: 0.438374 (Simulation time: 0 hr 27 min 41 sec) 
select_counter is 1004
Heartbeat CPU 0 instructions: 51000000 cycles: 98935015 heartbeat IPC: 0.578105 cumulative IPC: 0.440974 (Simulation time: 0 hr 28 min 14 sec) 
select_counter is 1018
Heartbeat CPU 0 instructions: 52000000 cycles: 100673874 heartbeat IPC: 0.57509 cumulative IPC: 0.443436 (Simulation time: 0 hr 28 min 47 sec) 
select_counter is 1019
Heartbeat CPU 0 instructions: 53000003 cycles: 102412217 heartbeat IPC: 0.575262 cumulative IPC: 0.445812 (Simulation time: 0 hr 29 min 20 sec) 
select_counter is 1018
Heartbeat CPU 0 instructions: 54000000 cycles: 104099754 heartbeat IPC: 0.592578 cumulative IPC: 0.448335 (Simulation time: 0 hr 29 min 53 sec) 
select_counter is 1014
Heartbeat CPU 0 instructions: 55000001 cycles: 105775723 heartbeat IPC: 0.59667 cumulative IPC: 0.450826 (Simulation time: 0 hr 30 min 23 sec) 
select_counter is 1020
Heartbeat CPU 0 instructions: 56000000 cycles: 107527818 heartbeat IPC: 0.570745 cumulative IPC: 0.452895 (Simulation time: 0 hr 30 min 56 sec) 
select_counter is 1020
Heartbeat CPU 0 instructions: 57000000 cycles: 109276615 heartbeat IPC: 0.571822 cumulative IPC: 0.454908 (Simulation time: 0 hr 31 min 30 sec) 
select_counter is 1017
Heartbeat CPU 0 instructions: 58000001 cycles: 111010658 heartbeat IPC: 0.576688 cumulative IPC: 0.456918 (Simulation time: 0 hr 32 min 3 sec) 
select_counter is 1017
Heartbeat CPU 0 instructions: 59000000 cycles: 112669945 heartbeat IPC: 0.602668 cumulative IPC: 0.459184 (Simulation time: 0 hr 32 min 35 sec) 
select_counter is 1023
Heartbeat CPU 0 instructions: 60000000 cycles: 114376476 heartbeat IPC: 0.585984 cumulative IPC: 0.46118 (Simulation time: 0 hr 33 min 11 sec) 
select_counter is 1021
Heartbeat CPU 0 instructions: 61000002 cycles: 116116017 heartbeat IPC: 0.574865 cumulative IPC: 0.462975 (Simulation time: 0 hr 33 min 43 sec) 
select_counter is 1021
Heartbeat CPU 0 instructions: 62000002 cycles: 117855887 heartbeat IPC: 0.574756 cumulative IPC: 0.464713 (Simulation time: 0 hr 34 min 15 sec) 
select_counter is 1019
Heartbeat CPU 0 instructions: 63000002 cycles: 125296897 heartbeat IPC: 0.13439 cumulative IPC: 0.444117 (Simulation time: 0 hr 34 min 55 sec) 
select_counter is 1023
Heartbeat CPU 0 instructions: 64000000 cycles: 127249232 heartbeat IPC: 0.512206 cumulative IPC: 0.445213 (Simulation time: 0 hr 35 min 30 sec) 
select_counter is 1021
Heartbeat CPU 0 instructions: 65000003 cycles: 128986143 heartbeat IPC: 0.575736 cumulative IPC: 0.447056 (Simulation time: 0 hr 36 min 9 sec) 
select_counter is 1016
Heartbeat CPU 0 instructions: 66000001 cycles: 130727000 heartbeat IPC: 0.574429 cumulative IPC: 0.448833 (Simulation time: 0 hr 36 min 40 sec) 
select_counter is 1005
Heartbeat CPU 0 instructions: 67000000 cycles: 132463264 heartbeat IPC: 0.575949 cumulative IPC: 0.450578 (Simulation time: 0 hr 37 min 15 sec) 
select_counter is 1004
Heartbeat CPU 0 instructions: 68000000 cycles: 134127185 heartbeat IPC: 0.60099 cumulative IPC: 0.45253 (Simulation time: 0 hr 37 min 49 sec) 
select_counter is 987
Heartbeat CPU 0 instructions: 69000000 cycles: 135828934 heartbeat IPC: 0.587631 cumulative IPC: 0.454301 (Simulation time: 0 hr 38 min 25 sec) 
select_counter is 988
Heartbeat CPU 0 instructions: 70000001 cycles: 137570454 heartbeat IPC: 0.574212 cumulative IPC: 0.455887 (Simulation time: 0 hr 39 min 1 sec) 
select_counter is 988
Heartbeat CPU 0 instructions: 71000001 cycles: 139312618 heartbeat IPC: 0.573999 cumulative IPC: 0.45743 (Simulation time: 0 hr 39 min 36 sec) 
select_counter is 983
Heartbeat CPU 0 instructions: 72000000 cycles: 141034191 heartbeat IPC: 0.580864 cumulative IPC: 0.459003 (Simulation time: 0 hr 40 min 10 sec) 
select_counter is 990
Heartbeat CPU 0 instructions: 73000003 cycles: 142684018 heartbeat IPC: 0.606126 cumulative IPC: 0.460779 (Simulation time: 0 hr 40 min 43 sec) 
select_counter is 991
Heartbeat CPU 0 instructions: 74000002 cycles: 144416286 heartbeat IPC: 0.577277 cumulative IPC: 0.462236 (Simulation time: 0 hr 41 min 17 sec) 
select_counter is 1005
Heartbeat CPU 0 instructions: 75000002 cycles: 146157480 heartbeat IPC: 0.574319 cumulative IPC: 0.463628 (Simulation time: 0 hr 41 min 51 sec) 
select_counter is 1015
Heartbeat CPU 0 instructions: 76000000 cycles: 152392598 heartbeat IPC: 0.160382 cumulative IPC: 0.450716 (Simulation time: 0 hr 42 min 29 sec) 
select_counter is 841
Heartbeat CPU 0 instructions: 77000000 cycles: 155586972 heartbeat IPC: 0.31305 cumulative IPC: 0.447777 (Simulation time: 0 hr 43 min 3 sec) 
select_counter is 757
Heartbeat CPU 0 instructions: 78000002 cycles: 157282946 heartbeat IPC: 0.589633 cumulative IPC: 0.449367 (Simulation time: 0 hr 43 min 35 sec) 
select_counter is 753
Heartbeat CPU 0 instructions: 79000002 cycles: 159023254 heartbeat IPC: 0.574611 cumulative IPC: 0.450791 (Simulation time: 0 hr 44 min 6 sec) 
select_counter is 745
Heartbeat CPU 0 instructions: 80000000 cycles: 160760928 heartbeat IPC: 0.575481 cumulative IPC: 0.452191 (Simulation time: 0 hr 44 min 37 sec) 
select_counter is 733
Heartbeat CPU 0 instructions: 81000000 cycles: 162487801 heartbeat IPC: 0.579081 cumulative IPC: 0.453591 (Simulation time: 0 hr 45 min 8 sec) 
select_counter is 714
Heartbeat CPU 0 instructions: 82000003 cycles: 164133390 heartbeat IPC: 0.607687 cumulative IPC: 0.455194 (Simulation time: 0 hr 45 min 36 sec) 
select_counter is 716
Heartbeat CPU 0 instructions: 83000003 cycles: 165864343 heartbeat IPC: 0.577716 cumulative IPC: 0.45652 (Simulation time: 0 hr 46 min 6 sec) 
select_counter is 711
Heartbeat CPU 0 instructions: 84000000 cycles: 167605127 heartbeat IPC: 0.574452 cumulative IPC: 0.45779 (Simulation time: 0 hr 46 min 34 sec) 
select_counter is 700
Heartbeat CPU 0 instructions: 85000003 cycles: 169345840 heartbeat IPC: 0.574479 cumulative IPC: 0.459033 (Simulation time: 0 hr 47 min 2 sec) 
select_counter is 687
Heartbeat CPU 0 instructions: 86000000 cycles: 171041336 heartbeat IPC: 0.589796 cumulative IPC: 0.460376 (Simulation time: 0 hr 47 min 30 sec) 
select_counter is 695
Heartbeat CPU 0 instructions: 87000000 cycles: 172716102 heartbeat IPC: 0.597098 cumulative IPC: 0.461749 (Simulation time: 0 hr 47 min 56 sec) 
select_counter is 699
Heartbeat CPU 0 instructions: 88000000 cycles: 174483147 heartbeat IPC: 0.565917 cumulative IPC: 0.462842 (Simulation time: 0 hr 48 min 18 sec) 
select_counter is 698
Heartbeat CPU 0 instructions: 89000002 cycles: 179625593 heartbeat IPC: 0.19446 cumulative IPC: 0.454895 (Simulation time: 0 hr 48 min 43 sec) 
select_counter is 601
Heartbeat CPU 0 instructions: 90000002 cycles: 183902712 heartbeat IPC: 0.233802 cumulative IPC: 0.44958 (Simulation time: 0 hr 49 min 8 sec) 
select_counter is 561
Heartbeat CPU 0 instructions: 91000003 cycles: 185550299 heartbeat IPC: 0.606949 cumulative IPC: 0.451024 (Simulation time: 0 hr 49 min 26 sec) 
select_counter is 559
Heartbeat CPU 0 instructions: 92000000 cycles: 187277750 heartbeat IPC: 0.578886 cumulative IPC: 0.452242 (Simulation time: 0 hr 49 min 45 sec) 
select_counter is 566
Heartbeat CPU 0 instructions: 93000000 cycles: 189016850 heartbeat IPC: 0.57501 cumulative IPC: 0.453408 (Simulation time: 0 hr 50 min 4 sec) 
select_counter is 559
Heartbeat CPU 0 instructions: 94000003 cycles: 190758570 heartbeat IPC: 0.574147 cumulative IPC: 0.454546 (Simulation time: 0 hr 50 min 22 sec) 
select_counter is 554
Heartbeat CPU 0 instructions: 95000000 cycles: 192459066 heartbeat IPC: 0.588062 cumulative IPC: 0.455764 (Simulation time: 0 hr 50 min 41 sec) 
select_counter is 549
Heartbeat CPU 0 instructions: 96000000 cycles: 194129953 heartbeat IPC: 0.598485 cumulative IPC: 0.457031 (Simulation time: 0 hr 50 min 59 sec) 
select_counter is 554
Heartbeat CPU 0 instructions: 97000001 cycles: 195866409 heartbeat IPC: 0.575886 cumulative IPC: 0.458118 (Simulation time: 0 hr 51 min 16 sec) 
select_counter is 557
Heartbeat CPU 0 instructions: 98000000 cycles: 197607840 heartbeat IPC: 0.57424 cumulative IPC: 0.459173 (Simulation time: 0 hr 51 min 35 sec) 
select_counter is 556
Heartbeat CPU 0 instructions: 99000001 cycles: 199347494 heartbeat IPC: 0.574828 cumulative IPC: 0.460213 (Simulation time: 0 hr 51 min 53 sec) 
select_counter is 558
Heartbeat CPU 0 instructions: 100000000 cycles: 201017759 heartbeat IPC: 0.598707 cumulative IPC: 0.461399 (Simulation time: 0 hr 52 min 11 sec) 
select_counter is 572
Heartbeat CPU 0 instructions: 101000000 cycles: 202719782 heartbeat IPC: 0.587536 cumulative IPC: 0.46249 (Simulation time: 0 hr 52 min 27 sec) 
select_counter is 575
Heartbeat CPU 0 instructions: 102000000 cycles: 206745507 heartbeat IPC: 0.248402 cumulative IPC: 0.458198 (Simulation time: 0 hr 52 min 45 sec) 
select_counter is 553
Heartbeat CPU 0 instructions: 103000000 cycles: 212106526 heartbeat IPC: 0.186532 cumulative IPC: 0.451133 (Simulation time: 0 hr 53 min 2 sec) 
select_counter is 506
Heartbeat CPU 0 instructions: 104000000 cycles: 213810585 heartbeat IPC: 0.586834 cumulative IPC: 0.452246 (Simulation time: 0 hr 53 min 16 sec) 
select_counter is 500
Heartbeat CPU 0 instructions: 105000000 cycles: 215473751 heartbeat IPC: 0.601263 cumulative IPC: 0.453429 (Simulation time: 0 hr 53 min 30 sec) 
select_counter is 510
Heartbeat CPU 0 instructions: 106000002 cycles: 217208187 heartbeat IPC: 0.576557 cumulative IPC: 0.45444 (Simulation time: 0 hr 53 min 44 sec) 
select_counter is 502
Heartbeat CPU 0 instructions: 107000001 cycles: 218948750 heartbeat IPC: 0.574526 cumulative IPC: 0.455421 (Simulation time: 0 hr 53 min 58 sec) 
select_counter is 496
Heartbeat CPU 0 instructions: 108000000 cycles: 220685965 heartbeat IPC: 0.575633 cumulative IPC: 0.456393 (Simulation time: 0 hr 54 min 10 sec) 
select_counter is 492
Heartbeat CPU 0 instructions: 109000001 cycles: 222359501 heartbeat IPC: 0.597538 cumulative IPC: 0.457485 (Simulation time: 0 hr 54 min 22 sec) 
select_counter is 488
Heartbeat CPU 0 instructions: 110000003 cycles: 224053646 heartbeat IPC: 0.590269 cumulative IPC: 0.458516 (Simulation time: 0 hr 54 min 34 sec) 
select_counter is 496
Finished CPU 0 instructions: 100000000 cycles: 218094679 cummulative IPC: 0.458516 (Simulation time: 0 hr 54 min 34 sec) 

ChampSim completed all CPUs

Region of Interest Statistics

CPU 0 cummulative IPC: 0.458516 instructions: 100000000 cycles: 218094679
LLC TOTAL     ACCESS:    1166755  HIT:     347365  MISS:     819390
LLC LOAD      ACCESS:      25077  HIT:       1456  MISS:      23621
LLC RFO       ACCESS:     264086  HIT:      14325  MISS:     249761
LLC PREFETCH  ACCESS:     611483  HIT:     138519  MISS:     472964
LLC WRITEBACK ACCESS:     266109  HIT:     193065  MISS:      73044
Ship samples: size is 64
21, 46, 67, 101, 142, 191, 212, 247, 269, 308, 322, 379, 411, 421, 463, 489, 541, 575, 580, 635, 669, 675, 709, 740, 787, 831, 862, 868, 898, 954, 986, 1016, 1032, 1086, 1117, 1142, 1181, 1201, 1229, 1259, 1285, 1327, 1350, 1377, 1428, 1461, 1489, 1524, 1550, 1580, 1618, 1650, 1682, 1718, 1733, 1777, 1812, 1833, 1876, 1902, 1924, 1964, 2007, 2018, 
Ship duel samples: size is 32
21, 67, 142, 212, 269, 322, 411, 463, 541, 580, 669, 709, 787, 862, 898, 986, 1032, 1117, 1181, 1229, 1285, 1350, 1428, 1489, 1550, 1618, 1682, 1733, 1812, 1876, 1924, 2007, 
Lime duel samples: size is 32
36, 82, 179, 205, 271, 351, 412, 495, 553, 622, 671, 715, 781, 871, 899, 1012, 1069, 1112, 1199, 1243, 1342, 1374, 1439, 1482, 1574, 1647, 1690, 1754, 1809, 1891, 1947, 2038, 
Lime samples: size is 15
36, 179, 271, 412, 553, 671, 781, 899, 1069, 1199, 1342, 1439, 1574, 1690, 1809, 
Insertion Distribution: 
	LOAD 0 0 0 0 0 0 1046 168 
	RFO 180 0 0 0 0 0 4134 7402 
	PREF 0 1980 0 0 0 0 16855 22713 
	WRITEBACK 0 0 0 0 0 0 0 6250 
Total Prefetch Downgrades: 777
