
*** ChampSim Multicore Out-of-Order Simulator ***

Warmup Instructions: 10000000
Simulation Instructions: 100000000
Configuration: 2
Number of CPUs: 1
LLC sets: 2048
LLC ways: 16
Off-chip DRAM Channels: 1 Width: 64-bit Data Rate: 1600 MT/s

CPU 0 runs /datasets/cs240c-wi22-a00-public/data/Assignment2-gz/sphinx3_2520B.trace.gz
CPU 0 L1D next line prefetcher
CPU 0 L2C IP-based stride prefetcher
Inside while loopHeartbeat CPU 0 instructions: 1000003 cycles: 338965 heartbeat IPC: 2.95017 cumulative IPC: 2.95017 (Simulation time: 0 hr 0 min 26 sec) 
select_counter is 513
Heartbeat CPU 0 instructions: 2000000 cycles: 737243 heartbeat IPC: 2.5108 cumulative IPC: 2.71281 (Simulation time: 0 hr 0 min 51 sec) 
select_counter is 493
Heartbeat CPU 0 instructions: 3000003 cycles: 1185245 heartbeat IPC: 2.23214 cumulative IPC: 2.53112 (Simulation time: 0 hr 1 min 15 sec) 
select_counter is 480
Heartbeat CPU 0 instructions: 4000000 cycles: 1524272 heartbeat IPC: 2.94961 cumulative IPC: 2.6242 (Simulation time: 0 hr 1 min 39 sec) 
select_counter is 440
Heartbeat CPU 0 instructions: 5000001 cycles: 1902426 heartbeat IPC: 2.64443 cumulative IPC: 2.62822 (Simulation time: 0 hr 2 min 4 sec) 
select_counter is 295
Heartbeat CPU 0 instructions: 6000001 cycles: 2367852 heartbeat IPC: 2.14857 cumulative IPC: 2.53394 (Simulation time: 0 hr 2 min 29 sec) 
select_counter is 163
Heartbeat CPU 0 instructions: 7000001 cycles: 2706792 heartbeat IPC: 2.95037 cumulative IPC: 2.58609 (Simulation time: 0 hr 2 min 52 sec) 
select_counter is 153
Heartbeat CPU 0 instructions: 8000000 cycles: 3055806 heartbeat IPC: 2.86521 cumulative IPC: 2.61797 (Simulation time: 0 hr 3 min 18 sec) 
select_counter is 52
Heartbeat CPU 0 instructions: 9000000 cycles: 3509235 heartbeat IPC: 2.20542 cumulative IPC: 2.56466 (Simulation time: 0 hr 3 min 42 sec) 
select_counter is 956
Heartbeat CPU 0 instructions: 10000000 cycles: 3859391 heartbeat IPC: 2.85587 cumulative IPC: 2.59108 (Simulation time: 0 hr 4 min 6 sec) 
select_counter is 950

Warmup complete CPU 0 instructions: 10000004 cycles: 3859392 (Simulation time: 0 hr 4 min 6 sec) 

Heartbeat CPU 0 instructions: 11000001 cycles: 4642351 heartbeat IPC: 1.27721 cumulative IPC: 1.2772 (Simulation time: 0 hr 4 min 34 sec) 
select_counter is 865
Heartbeat CPU 0 instructions: 12000000 cycles: 5499905 heartbeat IPC: 1.16611 cumulative IPC: 1.21913 (Simulation time: 0 hr 5 min 2 sec) 
select_counter is 742
Heartbeat CPU 0 instructions: 13000002 cycles: 6347155 heartbeat IPC: 1.18029 cumulative IPC: 1.2059 (Simulation time: 0 hr 5 min 32 sec) 
select_counter is 729
Heartbeat CPU 0 instructions: 14000002 cycles: 7112153 heartbeat IPC: 1.30719 cumulative IPC: 1.22972 (Simulation time: 0 hr 6 min 0 sec) 
select_counter is 642
Heartbeat CPU 0 instructions: 15000003 cycles: 7975815 heartbeat IPC: 1.15786 cumulative IPC: 1.21465 (Simulation time: 0 hr 6 min 28 sec) 
select_counter is 515
Heartbeat CPU 0 instructions: 16000000 cycles: 8806885 heartbeat IPC: 1.20326 cumulative IPC: 1.21273 (Simulation time: 0 hr 6 min 56 sec) 
select_counter is 496
Heartbeat CPU 0 instructions: 17000000 cycles: 9584613 heartbeat IPC: 1.2858 cumulative IPC: 1.22266 (Simulation time: 0 hr 7 min 26 sec) 
select_counter is 426
Heartbeat CPU 0 instructions: 18000002 cycles: 10444862 heartbeat IPC: 1.16246 cumulative IPC: 1.2148 (Simulation time: 0 hr 7 min 52 sec) 
select_counter is 311
Heartbeat CPU 0 instructions: 19000001 cycles: 11256876 heartbeat IPC: 1.2315 cumulative IPC: 1.21663 (Simulation time: 0 hr 8 min 20 sec) 
select_counter is 282
Heartbeat CPU 0 instructions: 20000000 cycles: 12030468 heartbeat IPC: 1.29267 cumulative IPC: 1.22383 (Simulation time: 0 hr 8 min 48 sec) 
select_counter is 209
Heartbeat CPU 0 instructions: 21000001 cycles: 13202561 heartbeat IPC: 0.853175 cumulative IPC: 1.17733 (Simulation time: 0 hr 9 min 16 sec) 
select_counter is 177
Heartbeat CPU 0 instructions: 22000002 cycles: 14160277 heartbeat IPC: 1.04415 cumulative IPC: 1.16495 (Simulation time: 0 hr 9 min 43 sec) 
select_counter is 96
Heartbeat CPU 0 instructions: 23000001 cycles: 14962271 heartbeat IPC: 1.24689 cumulative IPC: 1.17087 (Simulation time: 0 hr 10 min 12 sec) 
select_counter is 74
Heartbeat CPU 0 instructions: 24000000 cycles: 15742923 heartbeat IPC: 1.28098 cumulative IPC: 1.1781 (Simulation time: 0 hr 10 min 40 sec) 
select_counter is 12
Heartbeat CPU 0 instructions: 25000003 cycles: 16562239 heartbeat IPC: 1.22053 cumulative IPC: 1.18084 (Simulation time: 0 hr 11 min 7 sec) 
select_counter is 922
Heartbeat CPU 0 instructions: 26000001 cycles: 17346758 heartbeat IPC: 1.27466 cumulative IPC: 1.1863 (Simulation time: 0 hr 11 min 36 sec) 
select_counter is 901
Heartbeat CPU 0 instructions: 27000000 cycles: 18097953 heartbeat IPC: 1.33121 cumulative IPC: 1.19394 (Simulation time: 0 hr 12 min 4 sec) 
select_counter is 834
Heartbeat CPU 0 instructions: 28000000 cycles: 18912714 heartbeat IPC: 1.22735 cumulative IPC: 1.19575 (Simulation time: 0 hr 12 min 30 sec) 
select_counter is 719
Heartbeat CPU 0 instructions: 29000003 cycles: 19701314 heartbeat IPC: 1.26807 cumulative IPC: 1.19935 (Simulation time: 0 hr 12 min 57 sec) 
select_counter is 696
Heartbeat CPU 0 instructions: 30000003 cycles: 20445762 heartbeat IPC: 1.34328 cumulative IPC: 1.20581 (Simulation time: 0 hr 13 min 24 sec) 
select_counter is 627
Heartbeat CPU 0 instructions: 31000001 cycles: 21251574 heartbeat IPC: 1.24098 cumulative IPC: 1.20744 (Simulation time: 0 hr 13 min 52 sec) 
select_counter is 519
Heartbeat CPU 0 instructions: 32000000 cycles: 22029169 heartbeat IPC: 1.28602 cumulative IPC: 1.2108 (Simulation time: 0 hr 14 min 19 sec) 
select_counter is 494
Heartbeat CPU 0 instructions: 33000000 cycles: 22801376 heartbeat IPC: 1.29499 cumulative IPC: 1.21423 (Simulation time: 0 hr 14 min 47 sec) 
select_counter is 425
Heartbeat CPU 0 instructions: 34000000 cycles: 23606678 heartbeat IPC: 1.24177 cumulative IPC: 1.21536 (Simulation time: 0 hr 15 min 14 sec) 
select_counter is 322
Heartbeat CPU 0 instructions: 35000002 cycles: 24393477 heartbeat IPC: 1.27098 cumulative IPC: 1.21749 (Simulation time: 0 hr 15 min 40 sec) 
select_counter is 299
Heartbeat CPU 0 instructions: 36000000 cycles: 25153260 heartbeat IPC: 1.31616 cumulative IPC: 1.22101 (Simulation time: 0 hr 16 min 9 sec) 
select_counter is 227
Heartbeat CPU 0 instructions: 37000000 cycles: 25977196 heartbeat IPC: 1.21369 cumulative IPC: 1.22074 (Simulation time: 0 hr 16 min 37 sec) 
select_counter is 142
Heartbeat CPU 0 instructions: 38000002 cycles: 26759818 heartbeat IPC: 1.27776 cumulative IPC: 1.22268 (Simulation time: 0 hr 17 min 5 sec) 
select_counter is 112
Heartbeat CPU 0 instructions: 39000000 cycles: 27549022 heartbeat IPC: 1.2671 cumulative IPC: 1.22416 (Simulation time: 0 hr 17 min 35 sec) 
select_counter is 45
Heartbeat CPU 0 instructions: 40000000 cycles: 28377195 heartbeat IPC: 1.20748 cumulative IPC: 1.2236 (Simulation time: 0 hr 18 min 2 sec) 
select_counter is 986
Heartbeat CPU 0 instructions: 41000001 cycles: 29145543 heartbeat IPC: 1.30149 cumulative IPC: 1.22597 (Simulation time: 0 hr 18 min 29 sec) 
select_counter is 959
Heartbeat CPU 0 instructions: 42000002 cycles: 29915004 heartbeat IPC: 1.29961 cumulative IPC: 1.22814 (Simulation time: 0 hr 18 min 58 sec) 
select_counter is 898
Heartbeat CPU 0 instructions: 43000001 cycles: 30706069 heartbeat IPC: 1.26412 cumulative IPC: 1.2292 (Simulation time: 0 hr 19 min 25 sec) 
select_counter is 810
Heartbeat CPU 0 instructions: 44000000 cycles: 31474491 heartbeat IPC: 1.30137 cumulative IPC: 1.23121 (Simulation time: 0 hr 19 min 54 sec) 
select_counter is 776
Heartbeat CPU 0 instructions: 45000001 cycles: 32238715 heartbeat IPC: 1.30852 cumulative IPC: 1.23329 (Simulation time: 0 hr 20 min 23 sec) 
select_counter is 717
Heartbeat CPU 0 instructions: 46000001 cycles: 33052066 heartbeat IPC: 1.22948 cumulative IPC: 1.23319 (Simulation time: 0 hr 20 min 50 sec) 
select_counter is 625
Heartbeat CPU 0 instructions: 47000001 cycles: 33822476 heartbeat IPC: 1.29801 cumulative IPC: 1.23485 (Simulation time: 0 hr 21 min 17 sec) 
select_counter is 592
Heartbeat CPU 0 instructions: 48000000 cycles: 34599977 heartbeat IPC: 1.28617 cumulative IPC: 1.23615 (Simulation time: 0 hr 21 min 45 sec) 
select_counter is 531
Heartbeat CPU 0 instructions: 49000002 cycles: 35375303 heartbeat IPC: 1.28978 cumulative IPC: 1.23747 (Simulation time: 0 hr 22 min 12 sec) 
select_counter is 445
Heartbeat CPU 0 instructions: 50000003 cycles: 36143945 heartbeat IPC: 1.301 cumulative IPC: 1.23898 (Simulation time: 0 hr 22 min 39 sec) 
select_counter is 412
Heartbeat CPU 0 instructions: 51000001 cycles: 36938687 heartbeat IPC: 1.25827 cumulative IPC: 1.23945 (Simulation time: 0 hr 23 min 7 sec) 
select_counter is 349
Heartbeat CPU 0 instructions: 52000000 cycles: 37706015 heartbeat IPC: 1.30322 cumulative IPC: 1.24089 (Simulation time: 0 hr 23 min 33 sec) 
select_counter is 265
Heartbeat CPU 0 instructions: 53000001 cycles: 38475284 heartbeat IPC: 1.29994 cumulative IPC: 1.2422 (Simulation time: 0 hr 24 min 1 sec) 
select_counter is 235
Heartbeat CPU 0 instructions: 54000001 cycles: 39251036 heartbeat IPC: 1.28907 cumulative IPC: 1.24323 (Simulation time: 0 hr 24 min 31 sec) 
select_counter is 169
Heartbeat CPU 0 instructions: 55000000 cycles: 40001141 heartbeat IPC: 1.33315 cumulative IPC: 1.2451 (Simulation time: 0 hr 24 min 58 sec) 
select_counter is 95
Heartbeat CPU 0 instructions: 56000000 cycles: 40770747 heartbeat IPC: 1.29937 cumulative IPC: 1.24623 (Simulation time: 0 hr 25 min 26 sec) 
select_counter is 63
Heartbeat CPU 0 instructions: 57000000 cycles: 41654542 heartbeat IPC: 1.13148 cumulative IPC: 1.24355 (Simulation time: 0 hr 25 min 54 sec) 
select_counter is 9
Heartbeat CPU 0 instructions: 58000002 cycles: 42783191 heartbeat IPC: 0.886017 cumulative IPC: 1.23318 (Simulation time: 0 hr 26 min 24 sec) 
select_counter is 10
Heartbeat CPU 0 instructions: 59000001 cycles: 43581584 heartbeat IPC: 1.25251 cumulative IPC: 1.23357 (Simulation time: 0 hr 26 min 51 sec) 
select_counter is 963
Heartbeat CPU 0 instructions: 60000000 cycles: 44346173 heartbeat IPC: 1.30789 cumulative IPC: 1.23497 (Simulation time: 0 hr 27 min 18 sec) 
select_counter is 932
Heartbeat CPU 0 instructions: 61000001 cycles: 45088184 heartbeat IPC: 1.34769 cumulative IPC: 1.237 (Simulation time: 0 hr 27 min 47 sec) 
select_counter is 873
Heartbeat CPU 0 instructions: 62000000 cycles: 45855049 heartbeat IPC: 1.30401 cumulative IPC: 1.23822 (Simulation time: 0 hr 28 min 16 sec) 
select_counter is 789
Heartbeat CPU 0 instructions: 63000002 cycles: 46615471 heartbeat IPC: 1.31506 cumulative IPC: 1.23959 (Simulation time: 0 hr 28 min 44 sec) 
select_counter is 757
Heartbeat CPU 0 instructions: 64000000 cycles: 47373207 heartbeat IPC: 1.31972 cumulative IPC: 1.24099 (Simulation time: 0 hr 29 min 11 sec) 
select_counter is 690
Heartbeat CPU 0 instructions: 65000003 cycles: 48129265 heartbeat IPC: 1.32265 cumulative IPC: 1.24238 (Simulation time: 0 hr 29 min 40 sec) 
select_counter is 609
Heartbeat CPU 0 instructions: 66000000 cycles: 48896902 heartbeat IPC: 1.3027 cumulative IPC: 1.24341 (Simulation time: 0 hr 30 min 7 sec) 
select_counter is 579
Heartbeat CPU 0 instructions: 67000003 cycles: 49692664 heartbeat IPC: 1.25666 cumulative IPC: 1.24364 (Simulation time: 0 hr 30 min 35 sec) 
select_counter is 509
Heartbeat CPU 0 instructions: 68000000 cycles: 50459526 heartbeat IPC: 1.30401 cumulative IPC: 1.24463 (Simulation time: 0 hr 31 min 5 sec) 
select_counter is 440
Heartbeat CPU 0 instructions: 69000003 cycles: 51232580 heartbeat IPC: 1.29357 cumulative IPC: 1.24543 (Simulation time: 0 hr 31 min 32 sec) 
select_counter is 414
Heartbeat CPU 0 instructions: 70000000 cycles: 52033326 heartbeat IPC: 1.24883 cumulative IPC: 1.24549 (Simulation time: 0 hr 32 min 1 sec) 
select_counter is 342
Heartbeat CPU 0 instructions: 71000002 cycles: 52799161 heartbeat IPC: 1.30577 cumulative IPC: 1.24643 (Simulation time: 0 hr 32 min 28 sec) 
select_counter is 275
Heartbeat CPU 0 instructions: 72000000 cycles: 53566263 heartbeat IPC: 1.3036 cumulative IPC: 1.24731 (Simulation time: 0 hr 32 min 57 sec) 
select_counter is 241
Heartbeat CPU 0 instructions: 73000003 cycles: 54365732 heartbeat IPC: 1.25083 cumulative IPC: 1.24737 (Simulation time: 0 hr 33 min 26 sec) 
select_counter is 163
Heartbeat CPU 0 instructions: 74000003 cycles: 55120970 heartbeat IPC: 1.32409 cumulative IPC: 1.2485 (Simulation time: 0 hr 33 min 54 sec) 
select_counter is 96
Heartbeat CPU 0 instructions: 75000003 cycles: 55893938 heartbeat IPC: 1.29371 cumulative IPC: 1.24917 (Simulation time: 0 hr 34 min 22 sec) 
select_counter is 66
Heartbeat CPU 0 instructions: 76000000 cycles: 56678619 heartbeat IPC: 1.2744 cumulative IPC: 1.24954 (Simulation time: 0 hr 34 min 49 sec) 
select_counter is 1002
Heartbeat CPU 0 instructions: 77000003 cycles: 57446686 heartbeat IPC: 1.30197 cumulative IPC: 1.2503 (Simulation time: 0 hr 35 min 17 sec) 
select_counter is 948
Heartbeat CPU 0 instructions: 78000000 cycles: 58203177 heartbeat IPC: 1.32189 cumulative IPC: 1.25129 (Simulation time: 0 hr 35 min 46 sec) 
select_counter is 916
Heartbeat CPU 0 instructions: 79000003 cycles: 58972771 heartbeat IPC: 1.29939 cumulative IPC: 1.25196 (Simulation time: 0 hr 36 min 15 sec) 
select_counter is 823
Heartbeat CPU 0 instructions: 80000000 cycles: 59732754 heartbeat IPC: 1.31581 cumulative IPC: 1.25283 (Simulation time: 0 hr 36 min 41 sec) 
select_counter is 777
Heartbeat CPU 0 instructions: 81000001 cycles: 60494591 heartbeat IPC: 1.31262 cumulative IPC: 1.25364 (Simulation time: 0 hr 37 min 8 sec) 
select_counter is 741
Heartbeat CPU 0 instructions: 82000002 cycles: 61264874 heartbeat IPC: 1.29823 cumulative IPC: 1.25424 (Simulation time: 0 hr 37 min 34 sec) 
select_counter is 639
Heartbeat CPU 0 instructions: 83000003 cycles: 62036795 heartbeat IPC: 1.29547 cumulative IPC: 1.25478 (Simulation time: 0 hr 38 min 0 sec) 
select_counter is 589
Heartbeat CPU 0 instructions: 84000000 cycles: 62791764 heartbeat IPC: 1.32455 cumulative IPC: 1.25568 (Simulation time: 0 hr 38 min 26 sec) 
select_counter is 550
Heartbeat CPU 0 instructions: 85000001 cycles: 63568062 heartbeat IPC: 1.28817 cumulative IPC: 1.2561 (Simulation time: 0 hr 38 min 51 sec) 
select_counter is 457
Heartbeat CPU 0 instructions: 86000000 cycles: 64314865 heartbeat IPC: 1.33904 cumulative IPC: 1.25712 (Simulation time: 0 hr 39 min 20 sec) 
select_counter is 406
Heartbeat CPU 0 instructions: 87000003 cycles: 65082330 heartbeat IPC: 1.30299 cumulative IPC: 1.2577 (Simulation time: 0 hr 39 min 47 sec) 
select_counter is 365
Heartbeat CPU 0 instructions: 88000000 cycles: 65872066 heartbeat IPC: 1.26624 cumulative IPC: 1.25781 (Simulation time: 0 hr 40 min 14 sec) 
select_counter is 276
Heartbeat CPU 0 instructions: 89000002 cycles: 66620575 heartbeat IPC: 1.33599 cumulative IPC: 1.25874 (Simulation time: 0 hr 40 min 41 sec) 
select_counter is 225
Heartbeat CPU 0 instructions: 90000000 cycles: 67375254 heartbeat IPC: 1.32506 cumulative IPC: 1.25953 (Simulation time: 0 hr 41 min 8 sec) 
select_counter is 183
Heartbeat CPU 0 instructions: 91000001 cycles: 68163674 heartbeat IPC: 1.26836 cumulative IPC: 1.25964 (Simulation time: 0 hr 41 min 35 sec) 
select_counter is 99
Heartbeat CPU 0 instructions: 92000000 cycles: 68910363 heartbeat IPC: 1.33924 cumulative IPC: 1.26055 (Simulation time: 0 hr 41 min 59 sec) 
select_counter is 49
Heartbeat CPU 0 instructions: 93000002 cycles: 69652648 heartbeat IPC: 1.34719 cumulative IPC: 1.26153 (Simulation time: 0 hr 42 min 27 sec) 
select_counter is 4
Heartbeat CPU 0 instructions: 94000000 cycles: 70457267 heartbeat IPC: 1.24282 cumulative IPC: 1.2613 (Simulation time: 0 hr 42 min 49 sec) 
select_counter is 941
Heartbeat CPU 0 instructions: 95000000 cycles: 71195602 heartbeat IPC: 1.3544 cumulative IPC: 1.26232 (Simulation time: 0 hr 43 min 14 sec) 
select_counter is 889
Heartbeat CPU 0 instructions: 96000000 cycles: 71933786 heartbeat IPC: 1.35468 cumulative IPC: 1.26332 (Simulation time: 0 hr 43 min 38 sec) 
select_counter is 842
Heartbeat CPU 0 instructions: 97000002 cycles: 73112695 heartbeat IPC: 0.848244 cumulative IPC: 1.25626 (Simulation time: 0 hr 44 min 3 sec) 
select_counter is 832
Heartbeat CPU 0 instructions: 98000003 cycles: 74041953 heartbeat IPC: 1.07613 cumulative IPC: 1.25387 (Simulation time: 0 hr 44 min 29 sec) 
select_counter is 762
Heartbeat CPU 0 instructions: 99000001 cycles: 74803704 heartbeat IPC: 1.31276 cumulative IPC: 1.25451 (Simulation time: 0 hr 44 min 53 sec) 
select_counter is 708
Heartbeat CPU 0 instructions: 100000000 cycles: 75548519 heartbeat IPC: 1.34261 cumulative IPC: 1.25542 (Simulation time: 0 hr 45 min 18 sec) 
select_counter is 662
Heartbeat CPU 0 instructions: 101000001 cycles: 76875524 heartbeat IPC: 0.753577 cumulative IPC: 1.2463 (Simulation time: 0 hr 45 min 44 sec) 
select_counter is 615
Heartbeat CPU 0 instructions: 102000002 cycles: 77663370 heartbeat IPC: 1.26928 cumulative IPC: 1.24655 (Simulation time: 0 hr 46 min 6 sec) 
select_counter is 557
Heartbeat CPU 0 instructions: 103000001 cycles: 78449944 heartbeat IPC: 1.27133 cumulative IPC: 1.24681 (Simulation time: 0 hr 46 min 28 sec) 
select_counter is 535
Heartbeat CPU 0 instructions: 104000000 cycles: 79685223 heartbeat IPC: 0.809533 cumulative IPC: 1.23968 (Simulation time: 0 hr 46 min 51 sec) 
select_counter is 499
Heartbeat CPU 0 instructions: 105000002 cycles: 80504897 heartbeat IPC: 1.22 cumulative IPC: 1.23947 (Simulation time: 0 hr 47 min 13 sec) 
select_counter is 423
Heartbeat CPU 0 instructions: 106000000 cycles: 81292887 heartbeat IPC: 1.26905 cumulative IPC: 1.23977 (Simulation time: 0 hr 47 min 33 sec) 
select_counter is 389
Heartbeat CPU 0 instructions: 107000001 cycles: 82401326 heartbeat IPC: 0.902171 cumulative IPC: 1.23501 (Simulation time: 0 hr 47 min 54 sec) 
select_counter is 367
Heartbeat CPU 0 instructions: 108000000 cycles: 83414432 heartbeat IPC: 0.987063 cumulative IPC: 1.23185 (Simulation time: 0 hr 48 min 12 sec) 
select_counter is 305
Heartbeat CPU 0 instructions: 109000003 cycles: 84177842 heartbeat IPC: 1.30992 cumulative IPC: 1.23259 (Simulation time: 0 hr 48 min 29 sec) 
select_counter is 246
Heartbeat CPU 0 instructions: 110000000 cycles: 85050057 heartbeat IPC: 1.1465 cumulative IPC: 1.23167 (Simulation time: 0 hr 48 min 46 sec) 
select_counter is 206
Finished CPU 0 instructions: 100000003 cycles: 81190669 cummulative IPC: 1.23167 (Simulation time: 0 hr 48 min 46 sec) 

ChampSim completed all CPUs

Region of Interest Statistics

CPU 0 cummulative IPC: 1.23167 instructions: 100000003 cycles: 81190669
LLC TOTAL     ACCESS:    1445916  HIT:     865825  MISS:     580091
LLC LOAD      ACCESS:     118950  HIT:     100707  MISS:      18243
LLC RFO       ACCESS:     121994  HIT:     120691  MISS:       1303
LLC PREFETCH  ACCESS:    1076578  HIT:     516332  MISS:     560246
LLC WRITEBACK ACCESS:     128394  HIT:     128095  MISS:        299
Ship samples: size is 64
28, 61, 68, 121, 157, 189, 222, 226, 271, 318, 332, 357, 406, 443, 476, 509, 517, 560, 580, 631, 648, 698, 712, 747, 771, 807, 847, 875, 899, 942, 968, 992, 1042, 1057, 1117, 1139, 1182, 1212, 1237, 1261, 1306, 1314, 1363, 1392, 1437, 1455, 1485, 1506, 1567, 1586, 1625, 1640, 1676, 1697, 1747, 1775, 1800, 1826, 1882, 1900, 1936, 1954, 1996, 2018, 
Ship duel samples: size is 32
28, 68, 157, 222, 271, 332, 406, 476, 517, 580, 648, 712, 771, 847, 899, 968, 1042, 1117, 1182, 1237, 1306, 1363, 1437, 1485, 1567, 1625, 1676, 1747, 1800, 1882, 1936, 1996, 
Lime duel samples: size is 32
59, 116, 161, 197, 316, 352, 413, 452, 545, 577, 658, 736, 810, 886, 919, 974, 1078, 1095, 1162, 1236, 1319, 1362, 1464, 1493, 1585, 1634, 1705, 1791, 1828, 1864, 1980, 2015, 
Lime samples: size is 15
59, 161, 316, 413, 545, 658, 810, 919, 1078, 1162, 1319, 1464, 1585, 1705, 1828, 
Insertion Distribution: 
	LOAD 4263 0 0 0 0 0 10945 545 
	RFO 910 0 0 0 0 0 2890 16 
	PREF 0 7530 0 0 0 0 43702 313654 
	WRITEBACK 0 0 0 0 0 0 0 475 
Total Prefetch Downgrades: 8165
