
*** ChampSim Multicore Out-of-Order Simulator ***

Warmup Instructions: 10000000
Simulation Instructions: 100000000
Configuration: 2
Number of CPUs: 1
LLC sets: 2048
LLC ways: 16
Off-chip DRAM Channels: 1 Width: 64-bit Data Rate: 1600 MT/s

CPU 0 runs /datasets/cs240c-wi22-a00-public/data/Assignment2-gz/gcc_39B.trace.gz
CPU 0 L1D next line prefetcher
CPU 0 L2C IP-based stride prefetcher
Heartbeat CPU 0 instructions: 1000000 cycles: 510415 heartbeat IPC: 1.95919 cumulative IPC: 1.95919 (Simulation time: 0 hr 0 min 51 sec) 
Heartbeat CPU 0 instructions: 2000002 cycles: 1020477 heartbeat IPC: 1.96055 cumulative IPC: 1.95987 (Simulation time: 0 hr 1 min 41 sec) 
Heartbeat CPU 0 instructions: 3000002 cycles: 1529254 heartbeat IPC: 1.9655 cumulative IPC: 1.96174 (Simulation time: 0 hr 2 min 29 sec) 
Heartbeat CPU 0 instructions: 4000000 cycles: 2038229 heartbeat IPC: 1.96473 cumulative IPC: 1.96249 (Simulation time: 0 hr 3 min 18 sec) 
Heartbeat CPU 0 instructions: 5000003 cycles: 2547014 heartbeat IPC: 1.96547 cumulative IPC: 1.96308 (Simulation time: 0 hr 4 min 5 sec) 
Heartbeat CPU 0 instructions: 6000000 cycles: 3057390 heartbeat IPC: 1.95933 cumulative IPC: 1.96246 (Simulation time: 0 hr 4 min 49 sec) 
Heartbeat CPU 0 instructions: 7000001 cycles: 3565359 heartbeat IPC: 1.96863 cumulative IPC: 1.96334 (Simulation time: 0 hr 5 min 36 sec) 
Heartbeat CPU 0 instructions: 8000000 cycles: 4078805 heartbeat IPC: 1.94762 cumulative IPC: 1.96136 (Simulation time: 0 hr 6 min 20 sec) 
Heartbeat CPU 0 instructions: 9000002 cycles: 4590941 heartbeat IPC: 1.95261 cumulative IPC: 1.96038 (Simulation time: 0 hr 7 min 6 sec) 
Heartbeat CPU 0 instructions: 10000000 cycles: 5101490 heartbeat IPC: 1.95867 cumulative IPC: 1.96021 (Simulation time: 0 hr 7 min 49 sec) 

Warmup complete CPU 0 instructions: 10000004 cycles: 5101491 (Simulation time: 0 hr 7 min 49 sec) 

Heartbeat CPU 0 instructions: 11000002 cycles: 6484209 heartbeat IPC: 0.723214 cumulative IPC: 0.723212 (Simulation time: 0 hr 8 min 41 sec) 
Heartbeat CPU 0 instructions: 12000000 cycles: 7868654 heartbeat IPC: 0.72231 cumulative IPC: 0.72276 (Simulation time: 0 hr 9 min 38 sec) 
Heartbeat CPU 0 instructions: 13000003 cycles: 9248380 heartbeat IPC: 0.724784 cumulative IPC: 0.723434 (Simulation time: 0 hr 10 min 35 sec) 
Heartbeat CPU 0 instructions: 14000003 cycles: 10633971 heartbeat IPC: 0.721714 cumulative IPC: 0.723003 (Simulation time: 0 hr 11 min 30 sec) 
Heartbeat CPU 0 instructions: 15000001 cycles: 12017613 heartbeat IPC: 0.722729 cumulative IPC: 0.722948 (Simulation time: 0 hr 12 min 25 sec) 
Heartbeat CPU 0 instructions: 16000000 cycles: 13401669 heartbeat IPC: 0.722513 cumulative IPC: 0.722876 (Simulation time: 0 hr 13 min 18 sec) 
Heartbeat CPU 0 instructions: 17000000 cycles: 14787062 heartbeat IPC: 0.721817 cumulative IPC: 0.722724 (Simulation time: 0 hr 14 min 12 sec) 
Heartbeat CPU 0 instructions: 18000000 cycles: 16172266 heartbeat IPC: 0.721915 cumulative IPC: 0.722623 (Simulation time: 0 hr 15 min 10 sec) 
Heartbeat CPU 0 instructions: 19000001 cycles: 17550976 heartbeat IPC: 0.725316 cumulative IPC: 0.722921 (Simulation time: 0 hr 16 min 16 sec) 
Heartbeat CPU 0 instructions: 20000000 cycles: 18929568 heartbeat IPC: 0.725377 cumulative IPC: 0.723166 (Simulation time: 0 hr 17 min 17 sec) 
Heartbeat CPU 0 instructions: 21000001 cycles: 20326648 heartbeat IPC: 0.715779 cumulative IPC: 0.722488 (Simulation time: 0 hr 18 min 19 sec) 
Heartbeat CPU 0 instructions: 22000003 cycles: 21715599 heartbeat IPC: 0.719969 cumulative IPC: 0.722278 (Simulation time: 0 hr 19 min 20 sec) 
Heartbeat CPU 0 instructions: 23000003 cycles: 23097746 heartbeat IPC: 0.723512 cumulative IPC: 0.722372 (Simulation time: 0 hr 20 min 23 sec) 
Heartbeat CPU 0 instructions: 24000000 cycles: 24478786 heartbeat IPC: 0.72409 cumulative IPC: 0.722495 (Simulation time: 0 hr 21 min 28 sec) 
Heartbeat CPU 0 instructions: 25000002 cycles: 25850010 heartbeat IPC: 0.729277 cumulative IPC: 0.722943 (Simulation time: 0 hr 22 min 33 sec) 
Heartbeat CPU 0 instructions: 26000001 cycles: 27225536 heartbeat IPC: 0.726994 cumulative IPC: 0.723195 (Simulation time: 0 hr 23 min 43 sec) 
Heartbeat CPU 0 instructions: 27000000 cycles: 28596405 heartbeat IPC: 0.729464 cumulative IPC: 0.723561 (Simulation time: 0 hr 24 min 54 sec) 
Heartbeat CPU 0 instructions: 28000000 cycles: 29968999 heartbeat IPC: 0.728548 cumulative IPC: 0.723836 (Simulation time: 0 hr 25 min 49 sec) 
Heartbeat CPU 0 instructions: 29000001 cycles: 31332325 heartbeat IPC: 0.733501 cumulative IPC: 0.724338 (Simulation time: 0 hr 26 min 44 sec) 
Heartbeat CPU 0 instructions: 30000003 cycles: 32705002 heartbeat IPC: 0.728505 cumulative IPC: 0.724545 (Simulation time: 0 hr 27 min 41 sec) 
Heartbeat CPU 0 instructions: 31000003 cycles: 34093216 heartbeat IPC: 0.72035 cumulative IPC: 0.724345 (Simulation time: 0 hr 28 min 44 sec) 
Heartbeat CPU 0 instructions: 32000000 cycles: 35468605 heartbeat IPC: 0.727065 cumulative IPC: 0.724468 (Simulation time: 0 hr 29 min 41 sec) 
Heartbeat CPU 0 instructions: 33000002 cycles: 36852493 heartbeat IPC: 0.722603 cumulative IPC: 0.724387 (Simulation time: 0 hr 30 min 39 sec) 
Heartbeat CPU 0 instructions: 34000001 cycles: 38233560 heartbeat IPC: 0.724077 cumulative IPC: 0.724374 (Simulation time: 0 hr 31 min 37 sec) 
Heartbeat CPU 0 instructions: 35000001 cycles: 39614097 heartbeat IPC: 0.724356 cumulative IPC: 0.724373 (Simulation time: 0 hr 32 min 27 sec) 
Heartbeat CPU 0 instructions: 36000000 cycles: 40993732 heartbeat IPC: 0.724829 cumulative IPC: 0.72439 (Simulation time: 0 hr 33 min 17 sec) 
Heartbeat CPU 0 instructions: 37000000 cycles: 42375897 heartbeat IPC: 0.723503 cumulative IPC: 0.724357 (Simulation time: 0 hr 34 min 8 sec) 
Heartbeat CPU 0 instructions: 38000001 cycles: 43758125 heartbeat IPC: 0.72347 cumulative IPC: 0.724326 (Simulation time: 0 hr 34 min 57 sec) 
Heartbeat CPU 0 instructions: 39000000 cycles: 45135389 heartbeat IPC: 0.726076 cumulative IPC: 0.724386 (Simulation time: 0 hr 35 min 50 sec) 
Heartbeat CPU 0 instructions: 40000000 cycles: 46517907 heartbeat IPC: 0.723318 cumulative IPC: 0.72435 (Simulation time: 0 hr 36 min 40 sec) 
Heartbeat CPU 0 instructions: 41000000 cycles: 47899029 heartbeat IPC: 0.724049 cumulative IPC: 0.724341 (Simulation time: 0 hr 37 min 33 sec) 
Heartbeat CPU 0 instructions: 42000001 cycles: 49277020 heartbeat IPC: 0.725695 cumulative IPC: 0.724383 (Simulation time: 0 hr 38 min 21 sec) 
Heartbeat CPU 0 instructions: 43000002 cycles: 50662329 heartbeat IPC: 0.721861 cumulative IPC: 0.724306 (Simulation time: 0 hr 39 min 11 sec) 
Heartbeat CPU 0 instructions: 44000000 cycles: 52060886 heartbeat IPC: 0.715021 cumulative IPC: 0.72403 (Simulation time: 0 hr 40 min 1 sec) 
Heartbeat CPU 0 instructions: 45000000 cycles: 53439724 heartbeat IPC: 0.725248 cumulative IPC: 0.724064 (Simulation time: 0 hr 40 min 52 sec) 
Heartbeat CPU 0 instructions: 46000002 cycles: 54821830 heartbeat IPC: 0.723535 cumulative IPC: 0.72405 (Simulation time: 0 hr 41 min 42 sec) 
Heartbeat CPU 0 instructions: 47000000 cycles: 56206982 heartbeat IPC: 0.721941 cumulative IPC: 0.723993 (Simulation time: 0 hr 42 min 31 sec) 
Heartbeat CPU 0 instructions: 48000000 cycles: 57561799 heartbeat IPC: 0.738107 cumulative IPC: 0.724357 (Simulation time: 0 hr 43 min 22 sec) 
Heartbeat CPU 0 instructions: 49000000 cycles: 58929803 heartbeat IPC: 0.730992 cumulative IPC: 0.724526 (Simulation time: 0 hr 44 min 12 sec) 
Heartbeat CPU 0 instructions: 50000000 cycles: 60323575 heartbeat IPC: 0.717477 cumulative IPC: 0.724348 (Simulation time: 0 hr 45 min 3 sec) 
Heartbeat CPU 0 instructions: 51000000 cycles: 61694743 heartbeat IPC: 0.729305 cumulative IPC: 0.724468 (Simulation time: 0 hr 45 min 54 sec) 
Heartbeat CPU 0 instructions: 52000000 cycles: 63076354 heartbeat IPC: 0.723793 cumulative IPC: 0.724452 (Simulation time: 0 hr 46 min 43 sec) 
Heartbeat CPU 0 instructions: 53000003 cycles: 64454201 heartbeat IPC: 0.725772 cumulative IPC: 0.724482 (Simulation time: 0 hr 47 min 31 sec) 
Heartbeat CPU 0 instructions: 54000000 cycles: 65834506 heartbeat IPC: 0.724475 cumulative IPC: 0.724482 (Simulation time: 0 hr 48 min 20 sec) 
Heartbeat CPU 0 instructions: 55000002 cycles: 67213656 heartbeat IPC: 0.725086 cumulative IPC: 0.724496 (Simulation time: 0 hr 49 min 8 sec) 
Heartbeat CPU 0 instructions: 56000000 cycles: 68591698 heartbeat IPC: 0.725666 cumulative IPC: 0.724521 (Simulation time: 0 hr 50 min 1 sec) 
Heartbeat CPU 0 instructions: 57000000 cycles: 69974790 heartbeat IPC: 0.723018 cumulative IPC: 0.724489 (Simulation time: 0 hr 50 min 49 sec) 
Heartbeat CPU 0 instructions: 58000000 cycles: 71358296 heartbeat IPC: 0.722801 cumulative IPC: 0.724454 (Simulation time: 0 hr 51 min 38 sec) 
Heartbeat CPU 0 instructions: 59000000 cycles: 72741383 heartbeat IPC: 0.72302 cumulative IPC: 0.724425 (Simulation time: 0 hr 52 min 29 sec) 
Heartbeat CPU 0 instructions: 60000000 cycles: 74123565 heartbeat IPC: 0.723494 cumulative IPC: 0.724406 (Simulation time: 0 hr 53 min 17 sec) 
Heartbeat CPU 0 instructions: 61000000 cycles: 75503423 heartbeat IPC: 0.724712 cumulative IPC: 0.724412 (Simulation time: 0 hr 54 min 9 sec) 
Heartbeat CPU 0 instructions: 62000000 cycles: 76887555 heartbeat IPC: 0.722474 cumulative IPC: 0.724375 (Simulation time: 0 hr 55 min 0 sec) 
Heartbeat CPU 0 instructions: 63000001 cycles: 78275732 heartbeat IPC: 0.72037 cumulative IPC: 0.724299 (Simulation time: 0 hr 55 min 50 sec) 
Heartbeat CPU 0 instructions: 64000000 cycles: 79666824 heartbeat IPC: 0.718859 cumulative IPC: 0.724197 (Simulation time: 0 hr 56 min 42 sec) 
Heartbeat CPU 0 instructions: 65000000 cycles: 81040261 heartbeat IPC: 0.7281 cumulative IPC: 0.724268 (Simulation time: 0 hr 57 min 34 sec) 
Heartbeat CPU 0 instructions: 66000001 cycles: 82425413 heartbeat IPC: 0.721943 cumulative IPC: 0.724226 (Simulation time: 0 hr 58 min 25 sec) 
Heartbeat CPU 0 instructions: 67000001 cycles: 83793650 heartbeat IPC: 0.730868 cumulative IPC: 0.724342 (Simulation time: 0 hr 59 min 15 sec) 
Heartbeat CPU 0 instructions: 68000000 cycles: 85158904 heartbeat IPC: 0.732464 cumulative IPC: 0.72448 (Simulation time: 1 hr 0 min 16 sec) 
Heartbeat CPU 0 instructions: 69000000 cycles: 86544791 heartbeat IPC: 0.72156 cumulative IPC: 0.72443 (Simulation time: 1 hr 1 min 19 sec) 
Heartbeat CPU 0 instructions: 70000002 cycles: 87912242 heartbeat IPC: 0.731289 cumulative IPC: 0.724544 (Simulation time: 1 hr 2 min 19 sec) 
Heartbeat CPU 0 instructions: 71000000 cycles: 89285055 heartbeat IPC: 0.72843 cumulative IPC: 0.724607 (Simulation time: 1 hr 3 min 17 sec) 
Heartbeat CPU 0 instructions: 72000000 cycles: 90648255 heartbeat IPC: 0.733568 cumulative IPC: 0.72475 (Simulation time: 1 hr 4 min 20 sec) 
Heartbeat CPU 0 instructions: 73000000 cycles: 92013413 heartbeat IPC: 0.732516 cumulative IPC: 0.724872 (Simulation time: 1 hr 5 min 10 sec) 
Heartbeat CPU 0 instructions: 74000000 cycles: 93391002 heartbeat IPC: 0.725906 cumulative IPC: 0.724888 (Simulation time: 1 hr 5 min 54 sec) 
Heartbeat CPU 0 instructions: 75000001 cycles: 94757874 heartbeat IPC: 0.731598 cumulative IPC: 0.72499 (Simulation time: 1 hr 6 min 40 sec) 
Heartbeat CPU 0 instructions: 76000000 cycles: 96143395 heartbeat IPC: 0.721749 cumulative IPC: 0.724941 (Simulation time: 1 hr 7 min 25 sec) 
Heartbeat CPU 0 instructions: 77000003 cycles: 97509903 heartbeat IPC: 0.731794 cumulative IPC: 0.725042 (Simulation time: 1 hr 8 min 7 sec) 
Heartbeat CPU 0 instructions: 78000000 cycles: 98887619 heartbeat IPC: 0.725837 cumulative IPC: 0.725054 (Simulation time: 1 hr 8 min 46 sec) 
Heartbeat CPU 0 instructions: 79000002 cycles: 100264507 heartbeat IPC: 0.726277 cumulative IPC: 0.725072 (Simulation time: 1 hr 9 min 23 sec) 
Heartbeat CPU 0 instructions: 80000000 cycles: 101648429 heartbeat IPC: 0.722583 cumulative IPC: 0.725036 (Simulation time: 1 hr 10 min 4 sec) 
Heartbeat CPU 0 instructions: 81000000 cycles: 103036097 heartbeat IPC: 0.720633 cumulative IPC: 0.724973 (Simulation time: 1 hr 10 min 41 sec) 
Heartbeat CPU 0 instructions: 82000000 cycles: 104417004 heartbeat IPC: 0.724162 cumulative IPC: 0.724962 (Simulation time: 1 hr 11 min 19 sec) 
Heartbeat CPU 0 instructions: 83000000 cycles: 105800927 heartbeat IPC: 0.722584 cumulative IPC: 0.72493 (Simulation time: 1 hr 11 min 54 sec) 
Heartbeat CPU 0 instructions: 84000000 cycles: 107182275 heartbeat IPC: 0.723931 cumulative IPC: 0.724916 (Simulation time: 1 hr 12 min 30 sec) 
Heartbeat CPU 0 instructions: 85000000 cycles: 108557363 heartbeat IPC: 0.727226 cumulative IPC: 0.724947 (Simulation time: 1 hr 13 min 1 sec) 
Heartbeat CPU 0 instructions: 86000001 cycles: 109938856 heartbeat IPC: 0.723855 cumulative IPC: 0.724932 (Simulation time: 1 hr 13 min 32 sec) 
Heartbeat CPU 0 instructions: 87000001 cycles: 111321339 heartbeat IPC: 0.723336 cumulative IPC: 0.724912 (Simulation time: 1 hr 14 min 2 sec) 
Heartbeat CPU 0 instructions: 88000000 cycles: 112701202 heartbeat IPC: 0.724709 cumulative IPC: 0.724909 (Simulation time: 1 hr 14 min 34 sec) 
Heartbeat CPU 0 instructions: 89000003 cycles: 114083753 heartbeat IPC: 0.723303 cumulative IPC: 0.724889 (Simulation time: 1 hr 15 min 4 sec) 
Heartbeat CPU 0 instructions: 90000000 cycles: 115460400 heartbeat IPC: 0.7264 cumulative IPC: 0.724907 (Simulation time: 1 hr 15 min 31 sec) 
Heartbeat CPU 0 instructions: 91000001 cycles: 116851802 heartbeat IPC: 0.7187 cumulative IPC: 0.72483 (Simulation time: 1 hr 15 min 57 sec) 
Heartbeat CPU 0 instructions: 92000000 cycles: 118236444 heartbeat IPC: 0.722208 cumulative IPC: 0.724798 (Simulation time: 1 hr 16 min 23 sec) 
Heartbeat CPU 0 instructions: 93000000 cycles: 119619642 heartbeat IPC: 0.722962 cumulative IPC: 0.724776 (Simulation time: 1 hr 16 min 47 sec) 
Heartbeat CPU 0 instructions: 94000002 cycles: 120998837 heartbeat IPC: 0.725062 cumulative IPC: 0.724779 (Simulation time: 1 hr 17 min 10 sec) 
Heartbeat CPU 0 instructions: 95000001 cycles: 122377246 heartbeat IPC: 0.725473 cumulative IPC: 0.724787 (Simulation time: 1 hr 17 min 34 sec) 
Heartbeat CPU 0 instructions: 96000000 cycles: 123745976 heartbeat IPC: 0.730604 cumulative IPC: 0.724855 (Simulation time: 1 hr 17 min 56 sec) 
Heartbeat CPU 0 instructions: 97000000 cycles: 125115731 heartbeat IPC: 0.730058 cumulative IPC: 0.724914 (Simulation time: 1 hr 18 min 19 sec) 
Heartbeat CPU 0 instructions: 98000003 cycles: 126484505 heartbeat IPC: 0.730583 cumulative IPC: 0.724978 (Simulation time: 1 hr 18 min 40 sec) 
Heartbeat CPU 0 instructions: 99000000 cycles: 127852687 heartbeat IPC: 0.730895 cumulative IPC: 0.725044 (Simulation time: 1 hr 18 min 59 sec) 
Heartbeat CPU 0 instructions: 100000000 cycles: 129214815 heartbeat IPC: 0.734145 cumulative IPC: 0.725144 (Simulation time: 1 hr 19 min 18 sec) 
Heartbeat CPU 0 instructions: 101000000 cycles: 130579506 heartbeat IPC: 0.732767 cumulative IPC: 0.725227 (Simulation time: 1 hr 19 min 35 sec) 
Heartbeat CPU 0 instructions: 102000002 cycles: 131958857 heartbeat IPC: 0.72498 cumulative IPC: 0.725224 (Simulation time: 1 hr 19 min 53 sec) 
Heartbeat CPU 0 instructions: 103000003 cycles: 133327821 heartbeat IPC: 0.73048 cumulative IPC: 0.72528 (Simulation time: 1 hr 20 min 11 sec) 
Heartbeat CPU 0 instructions: 104000000 cycles: 134704285 heartbeat IPC: 0.726497 cumulative IPC: 0.725293 (Simulation time: 1 hr 20 min 28 sec) 
Heartbeat CPU 0 instructions: 105000000 cycles: 136068186 heartbeat IPC: 0.733191 cumulative IPC: 0.725375 (Simulation time: 1 hr 20 min 44 sec) 
Heartbeat CPU 0 instructions: 106000001 cycles: 137449301 heartbeat IPC: 0.724053 cumulative IPC: 0.725361 (Simulation time: 1 hr 21 min 1 sec) 
Heartbeat CPU 0 instructions: 107000000 cycles: 138833877 heartbeat IPC: 0.722242 cumulative IPC: 0.725329 (Simulation time: 1 hr 21 min 15 sec) 
Heartbeat CPU 0 instructions: 108000000 cycles: 140215483 heartbeat IPC: 0.723795 cumulative IPC: 0.725313 (Simulation time: 1 hr 21 min 29 sec) 
Heartbeat CPU 0 instructions: 109000003 cycles: 141609551 heartbeat IPC: 0.717327 cumulative IPC: 0.725232 (Simulation time: 1 hr 21 min 43 sec) 
Heartbeat CPU 0 instructions: 110000001 cycles: 142991588 heartbeat IPC: 0.723568 cumulative IPC: 0.725215 (Simulation time: 1 hr 21 min 56 sec) 
Finished CPU 0 instructions: 100000001 cycles: 137890098 cummulative IPC: 0.725215 (Simulation time: 1 hr 21 min 56 sec) 

ChampSim completed all CPUs

Region of Interest Statistics

CPU 0 cummulative IPC: 0.725215 instructions: 100000001 cycles: 137890098
LLC TOTAL     ACCESS:      42518  HIT:       7494  MISS:      35024
LLC LOAD      ACCESS:      13577  HIT:        250  MISS:      13327
LLC RFO       ACCESS:       3350  HIT:         10  MISS:       3340
LLC PREFETCH  ACCESS:      17694  HIT:        221  MISS:      17473
LLC WRITEBACK ACCESS:       7897  HIT:       7013  MISS:        884
