
*** ChampSim Multicore Out-of-Order Simulator ***

Warmup Instructions: 10000000
Simulation Instructions: 100000000
Configuration: 2
Number of CPUs: 1
LLC sets: 2048
LLC ways: 16
Off-chip DRAM Channels: 1 Width: 64-bit Data Rate: 1600 MT/s

CPU 0 runs /datasets/cs240c-wi22-a00-public/data/Assignment2-gz/leslie3d_1186B.trace.gz
CPU 0 L1D next line prefetcher
CPU 0 L2C IP-based stride prefetcher
Heartbeat CPU 0 instructions: 1000002 cycles: 564518 heartbeat IPC: 1.77143 cumulative IPC: 1.77143 (Simulation time: 0 hr 0 min 49 sec) 
Heartbeat CPU 0 instructions: 2000000 cycles: 1215884 heartbeat IPC: 1.53523 cumulative IPC: 1.64489 (Simulation time: 0 hr 1 min 38 sec) 
Heartbeat CPU 0 instructions: 3000000 cycles: 1867642 heartbeat IPC: 1.53431 cumulative IPC: 1.6063 (Simulation time: 0 hr 2 min 26 sec) 
Heartbeat CPU 0 instructions: 4000000 cycles: 2473228 heartbeat IPC: 1.65129 cumulative IPC: 1.61732 (Simulation time: 0 hr 3 min 10 sec) 
Heartbeat CPU 0 instructions: 5000000 cycles: 3083572 heartbeat IPC: 1.63842 cumulative IPC: 1.6215 (Simulation time: 0 hr 3 min 58 sec) 
Heartbeat CPU 0 instructions: 6000000 cycles: 3735296 heartbeat IPC: 1.53439 cumulative IPC: 1.6063 (Simulation time: 0 hr 4 min 46 sec) 
Heartbeat CPU 0 instructions: 7000001 cycles: 4386527 heartbeat IPC: 1.53556 cumulative IPC: 1.5958 (Simulation time: 0 hr 5 min 35 sec) 
Heartbeat CPU 0 instructions: 8000000 cycles: 4951107 heartbeat IPC: 1.77123 cumulative IPC: 1.6158 (Simulation time: 0 hr 6 min 22 sec) 
Heartbeat CPU 0 instructions: 9000003 cycles: 5602395 heartbeat IPC: 1.53542 cumulative IPC: 1.60646 (Simulation time: 0 hr 7 min 9 sec) 
Heartbeat CPU 0 instructions: 10000001 cycles: 6253550 heartbeat IPC: 1.53573 cumulative IPC: 1.59909 (Simulation time: 0 hr 7 min 55 sec) 

Warmup complete CPU 0 instructions: 10000001 cycles: 6253550 (Simulation time: 0 hr 7 min 55 sec) 

Heartbeat CPU 0 instructions: 11000001 cycles: 7644488 heartbeat IPC: 0.718939 cumulative IPC: 0.718939 (Simulation time: 0 hr 8 min 42 sec) 
Heartbeat CPU 0 instructions: 12000000 cycles: 8900368 heartbeat IPC: 0.796254 cumulative IPC: 0.755624 (Simulation time: 0 hr 9 min 30 sec) 
Heartbeat CPU 0 instructions: 13000000 cycles: 10119811 heartbeat IPC: 0.820047 cumulative IPC: 0.775943 (Simulation time: 0 hr 10 min 19 sec) 
Heartbeat CPU 0 instructions: 14000000 cycles: 11371107 heartbeat IPC: 0.799171 cumulative IPC: 0.781623 (Simulation time: 0 hr 11 min 9 sec) 
Heartbeat CPU 0 instructions: 15000002 cycles: 12777203 heartbeat IPC: 0.71119 cumulative IPC: 0.766442 (Simulation time: 0 hr 11 min 55 sec) 
Heartbeat CPU 0 instructions: 16000000 cycles: 13992025 heartbeat IPC: 0.823164 cumulative IPC: 0.775346 (Simulation time: 0 hr 12 min 45 sec) 
Heartbeat CPU 0 instructions: 17000000 cycles: 15202637 heartbeat IPC: 0.826028 cumulative IPC: 0.782203 (Simulation time: 0 hr 13 min 33 sec) 
Heartbeat CPU 0 instructions: 18000001 cycles: 16618889 heartbeat IPC: 0.70609 cumulative IPC: 0.771803 (Simulation time: 0 hr 14 min 18 sec) 
Heartbeat CPU 0 instructions: 19000003 cycles: 17859156 heartbeat IPC: 0.80628 cumulative IPC: 0.775487 (Simulation time: 0 hr 15 min 6 sec) 
Heartbeat CPU 0 instructions: 20000000 cycles: 19093505 heartbeat IPC: 0.810141 cumulative IPC: 0.778819 (Simulation time: 0 hr 15 min 58 sec) 
Heartbeat CPU 0 instructions: 21000003 cycles: 20403514 heartbeat IPC: 0.763356 cumulative IPC: 0.777387 (Simulation time: 0 hr 16 min 48 sec) 
Heartbeat CPU 0 instructions: 22000003 cycles: 21713445 heartbeat IPC: 0.763399 cumulative IPC: 0.776202 (Simulation time: 0 hr 17 min 39 sec) 
Heartbeat CPU 0 instructions: 23000002 cycles: 22918456 heartbeat IPC: 0.829867 cumulative IPC: 0.780082 (Simulation time: 0 hr 18 min 28 sec) 
Heartbeat CPU 0 instructions: 24000000 cycles: 24121488 heartbeat IPC: 0.831231 cumulative IPC: 0.783526 (Simulation time: 0 hr 19 min 17 sec) 
Heartbeat CPU 0 instructions: 25000000 cycles: 25532729 heartbeat IPC: 0.708596 cumulative IPC: 0.778041 (Simulation time: 0 hr 20 min 3 sec) 
Heartbeat CPU 0 instructions: 26000000 cycles: 26749966 heartbeat IPC: 0.821533 cumulative IPC: 0.780624 (Simulation time: 0 hr 20 min 51 sec) 
Heartbeat CPU 0 instructions: 27000000 cycles: 27963786 heartbeat IPC: 0.823845 cumulative IPC: 0.783041 (Simulation time: 0 hr 21 min 37 sec) 
Heartbeat CPU 0 instructions: 28000000 cycles: 29356277 heartbeat IPC: 0.718138 cumulative IPC: 0.779129 (Simulation time: 0 hr 22 min 23 sec) 
Heartbeat CPU 0 instructions: 29000002 cycles: 30588685 heartbeat IPC: 0.811421 cumulative IPC: 0.780764 (Simulation time: 0 hr 23 min 11 sec) 
Heartbeat CPU 0 instructions: 30000002 cycles: 31803547 heartbeat IPC: 0.823139 cumulative IPC: 0.782779 (Simulation time: 0 hr 24 min 0 sec) 
Heartbeat CPU 0 instructions: 31000002 cycles: 33050071 heartbeat IPC: 0.802231 cumulative IPC: 0.783684 (Simulation time: 0 hr 24 min 47 sec) 
Heartbeat CPU 0 instructions: 32000000 cycles: 34423279 heartbeat IPC: 0.72822 cumulative IPC: 0.78098 (Simulation time: 0 hr 25 min 34 sec) 
Heartbeat CPU 0 instructions: 33000000 cycles: 35625538 heartbeat IPC: 0.831768 cumulative IPC: 0.783059 (Simulation time: 0 hr 26 min 24 sec) 
Heartbeat CPU 0 instructions: 34000000 cycles: 36833139 heartbeat IPC: 0.828088 cumulative IPC: 0.784837 (Simulation time: 0 hr 27 min 10 sec) 
Heartbeat CPU 0 instructions: 35000000 cycles: 38244795 heartbeat IPC: 0.708388 cumulative IPC: 0.781464 (Simulation time: 0 hr 28 min 0 sec) 
Heartbeat CPU 0 instructions: 36000000 cycles: 39466326 heartbeat IPC: 0.818645 cumulative IPC: 0.782831 (Simulation time: 0 hr 28 min 50 sec) 
Heartbeat CPU 0 instructions: 37000003 cycles: 40689545 heartbeat IPC: 0.817518 cumulative IPC: 0.784063 (Simulation time: 0 hr 29 min 37 sec) 
Heartbeat CPU 0 instructions: 38000003 cycles: 42025784 heartbeat IPC: 0.748369 cumulative IPC: 0.78273 (Simulation time: 0 hr 30 min 23 sec) 
Heartbeat CPU 0 instructions: 39000001 cycles: 43310798 heartbeat IPC: 0.7782 cumulative IPC: 0.782573 (Simulation time: 0 hr 31 min 10 sec) 
Heartbeat CPU 0 instructions: 40000000 cycles: 44526073 heartbeat IPC: 0.822858 cumulative IPC: 0.783852 (Simulation time: 0 hr 32 min 0 sec) 
Heartbeat CPU 0 instructions: 41000000 cycles: 45722369 heartbeat IPC: 0.835914 cumulative IPC: 0.78543 (Simulation time: 0 hr 32 min 49 sec) 
Heartbeat CPU 0 instructions: 42000000 cycles: 47135943 heartbeat IPC: 0.707427 cumulative IPC: 0.782733 (Simulation time: 0 hr 33 min 34 sec) 
Heartbeat CPU 0 instructions: 43000002 cycles: 48326560 heartbeat IPC: 0.839902 cumulative IPC: 0.784351 (Simulation time: 0 hr 34 min 22 sec) 
Heartbeat CPU 0 instructions: 44000000 cycles: 49535048 heartbeat IPC: 0.827479 cumulative IPC: 0.785555 (Simulation time: 0 hr 35 min 9 sec) 
Heartbeat CPU 0 instructions: 45000001 cycles: 50980126 heartbeat IPC: 0.692005 cumulative IPC: 0.782533 (Simulation time: 0 hr 35 min 55 sec) 
Heartbeat CPU 0 instructions: 46000001 cycles: 52859281 heartbeat IPC: 0.532154 cumulative IPC: 0.772437 (Simulation time: 0 hr 36 min 45 sec) 
Heartbeat CPU 0 instructions: 47000002 cycles: 54862743 heartbeat IPC: 0.499137 cumulative IPC: 0.761173 (Simulation time: 0 hr 37 min 39 sec) 
Heartbeat CPU 0 instructions: 48000000 cycles: 56906946 heartbeat IPC: 0.489187 cumulative IPC: 0.750196 (Simulation time: 0 hr 38 min 30 sec) 
Heartbeat CPU 0 instructions: 49000002 cycles: 58937187 heartbeat IPC: 0.492553 cumulative IPC: 0.740268 (Simulation time: 0 hr 39 min 24 sec) 
Heartbeat CPU 0 instructions: 50000002 cycles: 60905401 heartbeat IPC: 0.508075 cumulative IPC: 0.731906 (Simulation time: 0 hr 40 min 14 sec) 
Heartbeat CPU 0 instructions: 51000000 cycles: 62871795 heartbeat IPC: 0.508544 cumulative IPC: 0.724148 (Simulation time: 0 hr 41 min 3 sec) 
Heartbeat CPU 0 instructions: 52000000 cycles: 64822307 heartbeat IPC: 0.512686 cumulative IPC: 0.717106 (Simulation time: 0 hr 41 min 53 sec) 
Heartbeat CPU 0 instructions: 53000003 cycles: 66802380 heartbeat IPC: 0.505033 cumulative IPC: 0.710171 (Simulation time: 0 hr 42 min 42 sec) 
Heartbeat CPU 0 instructions: 54000003 cycles: 68785158 heartbeat IPC: 0.504343 cumulative IPC: 0.703644 (Simulation time: 0 hr 43 min 34 sec) 
Heartbeat CPU 0 instructions: 55000001 cycles: 70865182 heartbeat IPC: 0.480763 cumulative IPC: 0.696469 (Simulation time: 0 hr 44 min 26 sec) 
Heartbeat CPU 0 instructions: 56000000 cycles: 73208309 heartbeat IPC: 0.42678 cumulative IPC: 0.687031 (Simulation time: 0 hr 45 min 18 sec) 
Heartbeat CPU 0 instructions: 57000003 cycles: 75618598 heartbeat IPC: 0.414889 cumulative IPC: 0.677575 (Simulation time: 0 hr 46 min 11 sec) 
Heartbeat CPU 0 instructions: 58000001 cycles: 78104301 heartbeat IPC: 0.4023 cumulative IPC: 0.668051 (Simulation time: 0 hr 47 min 3 sec) 
Heartbeat CPU 0 instructions: 59000003 cycles: 80425799 heartbeat IPC: 0.430757 cumulative IPC: 0.660624 (Simulation time: 0 hr 47 min 57 sec) 
Heartbeat CPU 0 instructions: 60000000 cycles: 82740887 heartbeat IPC: 0.431948 cumulative IPC: 0.653703 (Simulation time: 0 hr 48 min 55 sec) 
Heartbeat CPU 0 instructions: 61000003 cycles: 85070902 heartbeat IPC: 0.429183 cumulative IPC: 0.647066 (Simulation time: 0 hr 49 min 53 sec) 
Heartbeat CPU 0 instructions: 62000002 cycles: 87433120 heartbeat IPC: 0.423331 cumulative IPC: 0.640555 (Simulation time: 0 hr 50 min 58 sec) 
Heartbeat CPU 0 instructions: 63000000 cycles: 89428780 heartbeat IPC: 0.501086 cumulative IPC: 0.637209 (Simulation time: 0 hr 51 min 52 sec) 
Heartbeat CPU 0 instructions: 64000000 cycles: 90752686 heartbeat IPC: 0.755341 cumulative IPC: 0.63906 (Simulation time: 0 hr 52 min 43 sec) 
Heartbeat CPU 0 instructions: 65000000 cycles: 92112744 heartbeat IPC: 0.735263 cumulative IPC: 0.640584 (Simulation time: 0 hr 53 min 35 sec) 
Heartbeat CPU 0 instructions: 66000002 cycles: 93470326 heartbeat IPC: 0.736605 cumulative IPC: 0.642078 (Simulation time: 0 hr 54 min 29 sec) 
Heartbeat CPU 0 instructions: 67000000 cycles: 94817372 heartbeat IPC: 0.742364 cumulative IPC: 0.643604 (Simulation time: 0 hr 55 min 19 sec) 
Heartbeat CPU 0 instructions: 68000000 cycles: 96210048 heartbeat IPC: 0.718042 cumulative IPC: 0.644756 (Simulation time: 0 hr 56 min 9 sec) 
Heartbeat CPU 0 instructions: 69000000 cycles: 97542439 heartbeat IPC: 0.75053 cumulative IPC: 0.6463 (Simulation time: 0 hr 56 min 56 sec) 
Heartbeat CPU 0 instructions: 70000000 cycles: 98910237 heartbeat IPC: 0.731102 cumulative IPC: 0.647552 (Simulation time: 0 hr 57 min 44 sec) 
Heartbeat CPU 0 instructions: 71000000 cycles: 100233359 heartbeat IPC: 0.755788 cumulative IPC: 0.649076 (Simulation time: 0 hr 58 min 31 sec) 
Heartbeat CPU 0 instructions: 72000000 cycles: 101578039 heartbeat IPC: 0.743671 cumulative IPC: 0.65041 (Simulation time: 0 hr 59 min 17 sec) 
Heartbeat CPU 0 instructions: 73000000 cycles: 102925657 heartbeat IPC: 0.74205 cumulative IPC: 0.651687 (Simulation time: 1 hr 0 min 5 sec) 
Heartbeat CPU 0 instructions: 74000000 cycles: 104243082 heartbeat IPC: 0.759057 cumulative IPC: 0.653131 (Simulation time: 1 hr 0 min 52 sec) 
Heartbeat CPU 0 instructions: 75000003 cycles: 105605811 heartbeat IPC: 0.733824 cumulative IPC: 0.654238 (Simulation time: 1 hr 1 min 42 sec) 
Heartbeat CPU 0 instructions: 76000000 cycles: 106927960 heartbeat IPC: 0.756342 cumulative IPC: 0.655579 (Simulation time: 1 hr 2 min 30 sec) 
Heartbeat CPU 0 instructions: 77000000 cycles: 108290030 heartbeat IPC: 0.734177 cumulative IPC: 0.656628 (Simulation time: 1 hr 3 min 15 sec) 
Heartbeat CPU 0 instructions: 78000001 cycles: 109634571 heartbeat IPC: 0.743749 cumulative IPC: 0.657761 (Simulation time: 1 hr 3 min 59 sec) 
Heartbeat CPU 0 instructions: 79000002 cycles: 110984443 heartbeat IPC: 0.740812 cumulative IPC: 0.658831 (Simulation time: 1 hr 4 min 43 sec) 
Heartbeat CPU 0 instructions: 80000000 cycles: 112355181 heartbeat IPC: 0.729533 cumulative IPC: 0.659745 (Simulation time: 1 hr 5 min 29 sec) 
Heartbeat CPU 0 instructions: 81000000 cycles: 113689561 heartbeat IPC: 0.749412 cumulative IPC: 0.660858 (Simulation time: 1 hr 6 min 11 sec) 
Heartbeat CPU 0 instructions: 82000003 cycles: 115065339 heartbeat IPC: 0.726864 cumulative IPC: 0.661693 (Simulation time: 1 hr 6 min 51 sec) 
Heartbeat CPU 0 instructions: 83000001 cycles: 116410970 heartbeat IPC: 0.743144 cumulative IPC: 0.662688 (Simulation time: 1 hr 7 min 38 sec) 
Heartbeat CPU 0 instructions: 84000000 cycles: 117752046 heartbeat IPC: 0.745669 cumulative IPC: 0.663686 (Simulation time: 1 hr 8 min 18 sec) 
Heartbeat CPU 0 instructions: 85000001 cycles: 119081724 heartbeat IPC: 0.752063 cumulative IPC: 0.664728 (Simulation time: 1 hr 8 min 59 sec) 
Heartbeat CPU 0 instructions: 86000003 cycles: 120415028 heartbeat IPC: 0.750018 cumulative IPC: 0.665724 (Simulation time: 1 hr 9 min 36 sec) 
Heartbeat CPU 0 instructions: 87000001 cycles: 121755300 heartbeat IPC: 0.746116 cumulative IPC: 0.666657 (Simulation time: 1 hr 10 min 8 sec) 
Heartbeat CPU 0 instructions: 88000000 cycles: 123098431 heartbeat IPC: 0.744528 cumulative IPC: 0.667552 (Simulation time: 1 hr 10 min 41 sec) 
Heartbeat CPU 0 instructions: 89000001 cycles: 124447840 heartbeat IPC: 0.741066 cumulative IPC: 0.668391 (Simulation time: 1 hr 11 min 16 sec) 
Heartbeat CPU 0 instructions: 90000002 cycles: 125795793 heartbeat IPC: 0.741866 cumulative IPC: 0.669219 (Simulation time: 1 hr 11 min 51 sec) 
Heartbeat CPU 0 instructions: 91000000 cycles: 127148349 heartbeat IPC: 0.739339 cumulative IPC: 0.670004 (Simulation time: 1 hr 12 min 23 sec) 
Heartbeat CPU 0 instructions: 92000000 cycles: 128477534 heartbeat IPC: 0.752341 cumulative IPC: 0.670899 (Simulation time: 1 hr 12 min 53 sec) 
Heartbeat CPU 0 instructions: 93000002 cycles: 129834959 heartbeat IPC: 0.73669 cumulative IPC: 0.671622 (Simulation time: 1 hr 13 min 23 sec) 
Heartbeat CPU 0 instructions: 94000000 cycles: 131155845 heartbeat IPC: 0.757066 cumulative IPC: 0.672526 (Simulation time: 1 hr 13 min 55 sec) 
Heartbeat CPU 0 instructions: 95000003 cycles: 132483221 heartbeat IPC: 0.753368 cumulative IPC: 0.673376 (Simulation time: 1 hr 14 min 24 sec) 
Heartbeat CPU 0 instructions: 96000000 cycles: 133836416 heartbeat IPC: 0.73899 cumulative IPC: 0.674072 (Simulation time: 1 hr 14 min 50 sec) 
Heartbeat CPU 0 instructions: 97000001 cycles: 135165326 heartbeat IPC: 0.752497 cumulative IPC: 0.67488 (Simulation time: 1 hr 15 min 16 sec) 
Heartbeat CPU 0 instructions: 98000002 cycles: 136524988 heartbeat IPC: 0.735478 cumulative IPC: 0.675513 (Simulation time: 1 hr 15 min 40 sec) 
Heartbeat CPU 0 instructions: 99000000 cycles: 137858509 heartbeat IPC: 0.749893 cumulative IPC: 0.676266 (Simulation time: 1 hr 16 min 7 sec) 
Heartbeat CPU 0 instructions: 100000000 cycles: 139234036 heartbeat IPC: 0.726994 cumulative IPC: 0.676791 (Simulation time: 1 hr 16 min 31 sec) 
Heartbeat CPU 0 instructions: 101000000 cycles: 140579129 heartbeat IPC: 0.743443 cumulative IPC: 0.677458 (Simulation time: 1 hr 16 min 55 sec) 
Heartbeat CPU 0 instructions: 102000001 cycles: 141908061 heartbeat IPC: 0.752485 cumulative IPC: 0.678193 (Simulation time: 1 hr 17 min 16 sec) 
Heartbeat CPU 0 instructions: 103000002 cycles: 143271856 heartbeat IPC: 0.733249 cumulative IPC: 0.678741 (Simulation time: 1 hr 17 min 38 sec) 
Heartbeat CPU 0 instructions: 104000000 cycles: 144597507 heartbeat IPC: 0.754345 cumulative IPC: 0.679466 (Simulation time: 1 hr 18 min 0 sec) 
Heartbeat CPU 0 instructions: 105000001 cycles: 145976443 heartbeat IPC: 0.725198 cumulative IPC: 0.679917 (Simulation time: 1 hr 18 min 20 sec) 
Heartbeat CPU 0 instructions: 106000002 cycles: 147313116 heartbeat IPC: 0.748127 cumulative IPC: 0.680564 (Simulation time: 1 hr 18 min 40 sec) 
Heartbeat CPU 0 instructions: 107000000 cycles: 148664682 heartbeat IPC: 0.739881 cumulative IPC: 0.681127 (Simulation time: 1 hr 18 min 57 sec) 
Heartbeat CPU 0 instructions: 108000000 cycles: 150000037 heartbeat IPC: 0.748865 cumulative IPC: 0.681756 (Simulation time: 1 hr 19 min 15 sec) 
Heartbeat CPU 0 instructions: 109000003 cycles: 151333182 heartbeat IPC: 0.750108 cumulative IPC: 0.682384 (Simulation time: 1 hr 19 min 31 sec) 
Heartbeat CPU 0 instructions: 110000001 cycles: 152702268 heartbeat IPC: 0.730413 cumulative IPC: 0.682833 (Simulation time: 1 hr 19 min 48 sec) 
Finished CPU 0 instructions: 100000000 cycles: 146448718 cummulative IPC: 0.682833 (Simulation time: 1 hr 19 min 48 sec) 

ChampSim completed all CPUs

Region of Interest Statistics

CPU 0 cummulative IPC: 0.682833 instructions: 100000000 cycles: 146448718
LLC TOTAL     ACCESS:    3758472  HIT:     921173  MISS:    2837299
LLC LOAD      ACCESS:     402897  HIT:      79754  MISS:     323143
LLC RFO       ACCESS:     463723  HIT:     173996  MISS:     289727
LLC PREFETCH  ACCESS:    2142709  HIT:     219824  MISS:    1922885
LLC WRITEBACK ACCESS:     749143  HIT:     447599  MISS:     301544
