Initialize SIGNATURE TABLE
ST_SET: 1
ST_WAY: 256
ST_TAG_BIT: 16
ST_TAG_MASK: ffff

Initialize PATTERN TABLE
PT_SET: 512
PT_WAY: 4
SIG_DELTA_BIT: 7
C_SIG_BIT: 4
C_DELTA_BIT: 4

Initialize PREFETCH FILTER
FILTER_SET: 1024

*** ChampSim Multicore Out-of-Order Simulator ***

Warmup Instructions: 50000000
Simulation Instructions: 50000000
Number of CPUs: 1
LLC sets: 2048
LLC ways: 16
Off-chip DRAM Size: 4096 MB Channels: 1 Width: 64-bit Data Rate: 3200 MT/s

CPU 0 runs /Users/gandhardeshpande/Desktop/CSE240C/HW1/ChampSim/ipc1_public/server_032.champsimtrace.xz
CPU 0 L1D next line prefetcher
Heartbeat CPU 0 instructions: 10000002 cycles: 3527524 heartbeat IPC: 2.83485 cumulative IPC: 2.83485 (Simulation time: 0 hr 0 min 18 sec) 
Heartbeat CPU 0 instructions: 20000003 cycles: 7056665 heartbeat IPC: 2.83355 cumulative IPC: 2.8342 (Simulation time: 0 hr 0 min 36 sec) 
Heartbeat CPU 0 instructions: 30000000 cycles: 10585128 heartbeat IPC: 2.83409 cumulative IPC: 2.83417 (Simulation time: 0 hr 0 min 53 sec) 
Heartbeat CPU 0 instructions: 40000003 cycles: 14115092 heartbeat IPC: 2.83289 cumulative IPC: 2.83385 (Simulation time: 0 hr 1 min 11 sec) 
Heartbeat CPU 0 instructions: 50000000 cycles: 17642963 heartbeat IPC: 2.83457 cumulative IPC: 2.83399 (Simulation time: 0 hr 1 min 29 sec) 

Warmup complete CPU 0 instructions: 50000004 cycles: 17642964 (Simulation time: 0 hr 1 min 29 sec) 

Heartbeat CPU 0 instructions: 60000002 cycles: 24554972 heartbeat IPC: 1.44676 cumulative IPC: 1.44676 (Simulation time: 0 hr 1 min 47 sec) 
Heartbeat CPU 0 instructions: 70000000 cycles: 31460227 heartbeat IPC: 1.44817 cumulative IPC: 1.44746 (Simulation time: 0 hr 2 min 5 sec) 
*** Reached end of trace for Core: 0 Repeating trace: /Users/gandhardeshpande/Desktop/CSE240C/HW1/ChampSim/ipc1_public/server_032.champsimtrace.xz
Heartbeat CPU 0 instructions: 80000003 cycles: 38357884 heartbeat IPC: 1.44977 cumulative IPC: 1.44823 (Simulation time: 0 hr 2 min 23 sec) 
Heartbeat CPU 0 instructions: 90000002 cycles: 45223037 heartbeat IPC: 1.45663 cumulative IPC: 1.45032 (Simulation time: 0 hr 2 min 41 sec) 
Heartbeat CPU 0 instructions: 100000001 cycles: 52090641 heartbeat IPC: 1.45611 cumulative IPC: 1.45148 (Simulation time: 0 hr 2 min 59 sec) 
Finished CPU 0 instructions: 50000002 cycles: 34447679 cumulative IPC: 1.45148 (Simulation time: 0 hr 2 min 59 sec) 

ChampSim completed all CPUs

Region of Interest Statistics

CPU 0 cumulative IPC: 1.45148 instructions: 50000002 cycles: 34447679
L1D TOTAL     ACCESS:   19921898  HIT:   18093538  MISS:    1828360
L1D LOAD      ACCESS:    6826175  HIT:    6031931  MISS:     794244
L1D RFO       ACCESS:    6547075  HIT:    6252287  MISS:     294788
L1D PREFETCH  ACCESS:    6548648  HIT:    5809320  MISS:     739328
L1D WRITEBACK ACCESS:          0  HIT:          0  MISS:          0
L1D PREFETCH  REQUESTED:    6876499  ISSUED:    6741849  USEFUL:     170195  USELESS:     569133
L1D AVERAGE MISS LATENCY: 19.4061 cycles
L1I TOTAL     ACCESS:   13071994  HIT:    9344240  MISS:    3727754
L1I LOAD      ACCESS:    9479537  HIT:    8801209  MISS:     678328
L1I RFO       ACCESS:          0  HIT:          0  MISS:          0
L1I PREFETCH  ACCESS:    3592457  HIT:     543031  MISS:    3049426
L1I WRITEBACK ACCESS:          0  HIT:          0  MISS:          0
L1I PREFETCH  REQUESTED:    4509617  ISSUED:    4509617  USEFUL:    2543769  USELESS:     505637
L1I AVERAGE MISS LATENCY: 14.5293 cycles
L2C TOTAL     ACCESS:    7561255  HIT:    6932454  MISS:     628801
L2C LOAD      ACCESS:     912274  HIT:     792721  MISS:     119553
L2C RFO       ACCESS:     292640  HIT:     244242  MISS:      48398
L2C PREFETCH  ACCESS:    5720150  HIT:    5263810  MISS:     456340
L2C WRITEBACK ACCESS:     636191  HIT:     631681  MISS:       4510
L2C PREFETCH  REQUESTED:    4001914  ISSUED:    3999539  USEFUL:       9307  USELESS:     446981
L2C AVERAGE MISS LATENCY: 31.8036 cycles
LLC TOTAL     ACCESS:    1938850  HIT:    1932253  MISS:       6597
LLC LOAD      ACCESS:     119550  HIT:     119041  MISS:        509
LLC RFO       ACCESS:      48395  HIT:      48395  MISS:          0
LLC PREFETCH  ACCESS:    1672365  HIT:    1666296  MISS:       6069
LLC WRITEBACK ACCESS:      98540  HIT:      98521  MISS:         19
LLC PREFETCH  REQUESTED:          0  ISSUED:          0  USEFUL:        384  USELESS:       2436
LLC AVERAGE MISS LATENCY: 148.893 cycles
Major fault: 0 Minor fault: 1178
CPU 0 L1D next line prefetcher final stats

DRAM Statistics
 CHANNEL 0
 RQ ROW_BUFFER_HIT:       1611  ROW_BUFFER_MISS:       4967
 DBUS_CONGESTED:        617
 WQ ROW_BUFFER_HIT:          1  ROW_BUFFER_MISS:         15  FULL:          0

 AVG_CONGESTED_CYCLE: 4

CPU 0 Branch Prediction Accuracy: 99.8762% MPKI: 0.2296 Average ROB Occupancy at Mispredict: 169.89

Branch types
NOT_BRANCH: 40726055 81.4521%
BRANCH_DIRECT_JUMP: 508373 1.01675%
BRANCH_INDIRECT: 180051 0.360102%
BRANCH_CONDITIONAL: 5999645 11.9993%
BRANCH_DIRECT_CALL: 1086737 2.17347%
BRANCH_INDIRECT_CALL: 206109 0.412218%
BRANCH_RETURN: 1292835 2.58567%
BRANCH_OTHER: 0 0%

