Initialize SIGNATURE TABLE
ST_SET: 1
ST_WAY: 256
ST_TAG_BIT: 16
ST_TAG_MASK: ffff

Initialize PATTERN TABLE
PT_SET: 512
PT_WAY: 4
SIG_DELTA_BIT: 7
C_SIG_BIT: 4
C_DELTA_BIT: 4

Initialize PREFETCH FILTER
FILTER_SET: 1024

*** ChampSim Multicore Out-of-Order Simulator ***

Warmup Instructions: 50000000
Simulation Instructions: 50000000
Number of CPUs: 1
LLC sets: 2048
LLC ways: 16
Off-chip DRAM Size: 4096 MB Channels: 1 Width: 64-bit Data Rate: 3200 MT/s

CPU 0 runs /Users/gandhardeshpande/Desktop/CSE240C/HW1/ChampSim/ipc1_public/client_003.champsimtrace.xz
CPU 0 L1I next line prefetcher
Running FNL-MMA for L1I
CPU 0 L1D next line prefetcher
Heartbeat CPU 0 instructions: 10000000 cycles: 3478099 heartbeat IPC: 2.87513 cumulative IPC: 2.87513 (Simulation time: 0 hr 0 min 14 sec) 
Heartbeat CPU 0 instructions: 20000002 cycles: 6932128 heartbeat IPC: 2.89517 cumulative IPC: 2.88512 (Simulation time: 0 hr 0 min 28 sec) 
Heartbeat CPU 0 instructions: 30000003 cycles: 10493036 heartbeat IPC: 2.80827 cumulative IPC: 2.85904 (Simulation time: 0 hr 0 min 42 sec) 
Heartbeat CPU 0 instructions: 40000001 cycles: 14109377 heartbeat IPC: 2.76523 cumulative IPC: 2.83499 (Simulation time: 0 hr 0 min 57 sec) 
Heartbeat CPU 0 instructions: 50000003 cycles: 17654460 heartbeat IPC: 2.82081 cumulative IPC: 2.83215 (Simulation time: 0 hr 1 min 11 sec) 

Warmup complete CPU 0 instructions: 50000003 cycles: 17654460 (Simulation time: 0 hr 1 min 11 sec) 

Heartbeat CPU 0 instructions: 60000002 cycles: 23901942 heartbeat IPC: 1.60064 cumulative IPC: 1.60064 (Simulation time: 0 hr 1 min 23 sec) 
Heartbeat CPU 0 instructions: 70000001 cycles: 29954357 heartbeat IPC: 1.65223 cumulative IPC: 1.62603 (Simulation time: 0 hr 1 min 36 sec) 
Heartbeat CPU 0 instructions: 80000001 cycles: 36770844 heartbeat IPC: 1.46703 cumulative IPC: 1.56933 (Simulation time: 0 hr 1 min 48 sec) 
Heartbeat CPU 0 instructions: 90000000 cycles: 45787491 heartbeat IPC: 1.10906 cumulative IPC: 1.42182 (Simulation time: 0 hr 1 min 57 sec) 
Heartbeat CPU 0 instructions: 100000003 cycles: 56615430 heartbeat IPC: 0.923537 cumulative IPC: 1.28334 (Simulation time: 0 hr 2 min 9 sec) 
Finished CPU 0 instructions: 50000000 cycles: 38960970 cumulative IPC: 1.28334 (Simulation time: 0 hr 2 min 9 sec) 

ChampSim completed all CPUs

Region of Interest Statistics

CPU 0 cumulative IPC: 1.28334 instructions: 50000000 cycles: 38960970
L1D TOTAL     ACCESS:   17643010  HIT:   17147008  MISS:     496002
L1D LOAD      ACCESS:    6041393  HIT:    5914706  MISS:     126687
L1D RFO       ACCESS:    5950638  HIT:    5716287  MISS:     234351
L1D PREFETCH  ACCESS:    5650979  HIT:    5516015  MISS:     134964
L1D WRITEBACK ACCESS:          0  HIT:          0  MISS:          0
L1D PREFETCH  REQUESTED:    6083152  ISSUED:    5942145  USEFUL:      67030  USELESS:      67983
L1D AVERAGE MISS LATENCY: 121.005 cycles
L1I TOTAL     ACCESS:   11560934  HIT:   10743434  MISS:     817500
L1I LOAD      ACCESS:    9448609  HIT:    9344138  MISS:     104471
L1I RFO       ACCESS:          0  HIT:          0  MISS:          0
L1I PREFETCH  ACCESS:    2112325  HIT:    1399296  MISS:     713029
L1I WRITEBACK ACCESS:          0  HIT:          0  MISS:          0
L1I PREFETCH  REQUESTED:    2184086  ISSUED:    2184063  USEFUL:     450549  USELESS:     262507
L1I AVERAGE MISS LATENCY: 20.3292 cycles
L2C TOTAL     ACCESS:    1929866  HIT:    1532295  MISS:     397571
L2C LOAD      ACCESS:     181719  HIT:     139031  MISS:      42688
L2C RFO       ACCESS:     232295  HIT:      25718  MISS:     206577
L2C PREFETCH  ACCESS:    1246542  HIT:    1099447  MISS:     147095
L2C WRITEBACK ACCESS:     269310  HIT:     268099  MISS:       1211
L2C PREFETCH  REQUESTED:    1425456  ISSUED:    1424806  USEFUL:      13077  USELESS:     134435
L2C AVERAGE MISS LATENCY: 165.427 cycles
LLC TOTAL     ACCESS:    1018914  HIT:     732242  MISS:     286672
LLC LOAD      ACCESS:      42578  HIT:      29612  MISS:      12966
LLC RFO       ACCESS:     206564  HIT:      35222  MISS:     171342
LLC PREFETCH  ACCESS:     545417  HIT:     443444  MISS:     101973
LLC WRITEBACK ACCESS:     224355  HIT:     223964  MISS:        391
LLC PREFETCH  REQUESTED:          0  ISSUED:          0  USEFUL:      10686  USELESS:      91836
LLC AVERAGE MISS LATENCY: 227.735 cycles
Major fault: 0 Minor fault: 5042
I-Shadow cache 408 bytes
Touched + WorthPF tables 196608 bytes 
MMA filter 174 bytes 
FNL filter 272 bytes 
TOTAL PREFETCHER STORAGE SIZE: 779094 bytes
CPU 0 L1I next line prefetcher final stats
CPU 0 L1D next line prefetcher final stats

DRAM Statistics
 CHANNEL 0
 RQ ROW_BUFFER_HIT:     100972  ROW_BUFFER_MISS:     185305
 DBUS_CONGESTED:     256414
 WQ ROW_BUFFER_HIT:      60685  ROW_BUFFER_MISS:     118109  FULL:          0

 AVG_CONGESTED_CYCLE: 6

CPU 0 Branch Prediction Accuracy: 98.6631% MPKI: 2.66884 Average ROB Occupancy at Mispredict: 77.3866

Branch types
NOT_BRANCH: 40018780 80.0376%
BRANCH_DIRECT_JUMP: 370861 0.741722%
BRANCH_INDIRECT: 83253 0.166506%
BRANCH_CONDITIONAL: 7877436 15.7549%
BRANCH_DIRECT_CALL: 722316 1.44463%
BRANCH_INDIRECT_CALL: 101901 0.203802%
BRANCH_RETURN: 825355 1.65071%
BRANCH_OTHER: 0 0%

