Initialize SIGNATURE TABLE
ST_SET: 1
ST_WAY: 256
ST_TAG_BIT: 16
ST_TAG_MASK: ffff

Initialize PATTERN TABLE
PT_SET: 512
PT_WAY: 4
SIG_DELTA_BIT: 7
C_SIG_BIT: 4
C_DELTA_BIT: 4

Initialize PREFETCH FILTER
FILTER_SET: 1024

*** ChampSim Multicore Out-of-Order Simulator ***

Warmup Instructions: 50000000
Simulation Instructions: 50000000
Number of CPUs: 1
LLC sets: 2048
LLC ways: 16
Off-chip DRAM Size: 4096 MB Channels: 1 Width: 64-bit Data Rate: 3200 MT/s

CPU 0 runs /Users/gandhardeshpande/Desktop/CSE240C/HW1/ChampSim/ipc1_public/server_039.champsimtrace.xz
CPU 0 L1I next line prefetcher
Running FNL-MMA for L1I
CPU 0 L1D next line prefetcher
Heartbeat CPU 0 instructions: 10000003 cycles: 3451490 heartbeat IPC: 2.8973 cumulative IPC: 2.8973 (Simulation time: 0 hr 0 min 15 sec) 
Heartbeat CPU 0 instructions: 20000002 cycles: 6896044 heartbeat IPC: 2.90313 cumulative IPC: 2.90021 (Simulation time: 0 hr 0 min 29 sec) 
Heartbeat CPU 0 instructions: 30000001 cycles: 10342424 heartbeat IPC: 2.9016 cumulative IPC: 2.90067 (Simulation time: 0 hr 0 min 44 sec) 
Heartbeat CPU 0 instructions: 40000002 cycles: 13784200 heartbeat IPC: 2.90548 cumulative IPC: 2.90187 (Simulation time: 0 hr 0 min 59 sec) 
Heartbeat CPU 0 instructions: 50000001 cycles: 17225328 heartbeat IPC: 2.90602 cumulative IPC: 2.9027 (Simulation time: 0 hr 1 min 14 sec) 

Warmup complete CPU 0 instructions: 50000001 cycles: 17225328 (Simulation time: 0 hr 1 min 14 sec) 

Heartbeat CPU 0 instructions: 60000000 cycles: 22998628 heartbeat IPC: 1.73211 cumulative IPC: 1.73211 (Simulation time: 0 hr 1 min 29 sec) 
Heartbeat CPU 0 instructions: 70000000 cycles: 28769817 heartbeat IPC: 1.73275 cumulative IPC: 1.73243 (Simulation time: 0 hr 1 min 43 sec) 
Heartbeat CPU 0 instructions: 80000000 cycles: 34537395 heartbeat IPC: 1.73383 cumulative IPC: 1.7329 (Simulation time: 0 hr 1 min 58 sec) 
Heartbeat CPU 0 instructions: 90000001 cycles: 40310844 heartbeat IPC: 1.73207 cumulative IPC: 1.73269 (Simulation time: 0 hr 2 min 12 sec) 
Heartbeat CPU 0 instructions: 100000002 cycles: 46093154 heartbeat IPC: 1.72941 cumulative IPC: 1.73203 (Simulation time: 0 hr 2 min 27 sec) 
Finished CPU 0 instructions: 50000001 cycles: 28867826 cumulative IPC: 1.73203 (Simulation time: 0 hr 2 min 27 sec) 

ChampSim completed all CPUs

Region of Interest Statistics

CPU 0 cumulative IPC: 1.73203 instructions: 50000001 cycles: 28867826
L1D TOTAL     ACCESS:   19884874  HIT:   19390297  MISS:     494577
L1D LOAD      ACCESS:    6492064  HIT:    6270511  MISS:     221553
L1D RFO       ACCESS:    7089444  HIT:    7022603  MISS:      66841
L1D PREFETCH  ACCESS:    6303366  HIT:    6097183  MISS:     206183
L1D WRITEBACK ACCESS:          0  HIT:          0  MISS:          0
L1D PREFETCH  REQUESTED:    6508004  ISSUED:    6375761  USEFUL:      50114  USELESS:     156073
L1D AVERAGE MISS LATENCY: 15.0808 cycles
L1I TOTAL     ACCESS:   16129339  HIT:   11305520  MISS:    4823819
L1I LOAD      ACCESS:    9393122  HIT:    9362793  MISS:      30329
L1I RFO       ACCESS:          0  HIT:          0  MISS:          0
L1I PREFETCH  ACCESS:    6736217  HIT:    1942727  MISS:    4793490
L1I WRITEBACK ACCESS:          0  HIT:          0  MISS:          0
L1I PREFETCH  REQUESTED:    6911353  ISSUED:    6911353  USEFUL:    4167129  USELESS:     626396
L1I AVERAGE MISS LATENCY: 14.7505 cycles
L2C TOTAL     ACCESS:    7246676  HIT:    7246618  MISS:         58
L2C LOAD      ACCESS:     232830  HIT:     232828  MISS:          2
L2C RFO       ACCESS:      66751  HIT:      66751  MISS:          0
L2C PREFETCH  ACCESS:    6767082  HIT:    6767026  MISS:         56
L2C WRITEBACK ACCESS:     180013  HIT:     180013  MISS:          0
L2C PREFETCH  REQUESTED:    6259195  ISSUED:    6257474  USEFUL:          2  USELESS:          0
L2C AVERAGE MISS LATENCY: 52.1379 cycles
LLC TOTAL     ACCESS:    1100773  HIT:    1100415  MISS:        358
LLC LOAD      ACCESS:          2  HIT:          1  MISS:          1
LLC RFO       ACCESS:          0  HIT:          0  MISS:          0
LLC PREFETCH  ACCESS:    1100770  HIT:    1100413  MISS:        357
LLC WRITEBACK ACCESS:          1  HIT:          1  MISS:          0
LLC PREFETCH  REQUESTED:          0  ISSUED:          0  USEFUL:          1  USELESS:          0
LLC AVERAGE MISS LATENCY: 169.723 cycles
Major fault: 0 Minor fault: 356
I-Shadow cache 408 bytes
Touched + WorthPF tables 196608 bytes 
MMA filter 174 bytes 
FNL filter 272 bytes 
TOTAL PREFETCHER STORAGE SIZE: 779094 bytes
CPU 0 L1I next line prefetcher final stats
CPU 0 L1D next line prefetcher final stats

DRAM Statistics
 CHANNEL 0
 RQ ROW_BUFFER_HIT:         66  ROW_BUFFER_MISS:        292
 DBUS_CONGESTED:         52
 WQ ROW_BUFFER_HIT:          0  ROW_BUFFER_MISS:          0  FULL:          0

 AVG_CONGESTED_CYCLE: 5

CPU 0 Branch Prediction Accuracy: 99.9091% MPKI: 0.1547 Average ROB Occupancy at Mispredict: 304.809

Branch types
NOT_BRANCH: 41495033 82.9901%
BRANCH_DIRECT_JUMP: 491309 0.982618%
BRANCH_INDIRECT: 0 0%
BRANCH_CONDITIONAL: 5595262 11.1905%
BRANCH_DIRECT_CALL: 1028409 2.05682%
BRANCH_INDIRECT_CALL: 180756 0.361512%
BRANCH_RETURN: 1209170 2.41834%
BRANCH_OTHER: 0 0%

