Initialize SIGNATURE TABLE
ST_SET: 1
ST_WAY: 256
ST_TAG_BIT: 16
ST_TAG_MASK: ffff

Initialize PATTERN TABLE
PT_SET: 512
PT_WAY: 4
SIG_DELTA_BIT: 7
C_SIG_BIT: 4
C_DELTA_BIT: 4

Initialize PREFETCH FILTER
FILTER_SET: 1024

*** ChampSim Multicore Out-of-Order Simulator ***

Warmup Instructions: 50000000
Simulation Instructions: 50000000
Number of CPUs: 1
LLC sets: 2048
LLC ways: 16
Off-chip DRAM Size: 4096 MB Channels: 1 Width: 64-bit Data Rate: 3200 MT/s

CPU 0 runs /Users/gandhardeshpande/Desktop/CSE240C/HW1/ChampSim/ipc1_public/server_009.champsimtrace.xz
CPU 0 L1I next line prefetcher
Running FNL-MMA for L1I
CPU 0 L1D next line prefetcher
Heartbeat CPU 0 instructions: 10000003 cycles: 3195309 heartbeat IPC: 3.12959 cumulative IPC: 3.12959 (Simulation time: 0 hr 0 min 14 sec) 
Heartbeat CPU 0 instructions: 20000001 cycles: 6383297 heartbeat IPC: 3.13677 cumulative IPC: 3.13318 (Simulation time: 0 hr 0 min 27 sec) 
Heartbeat CPU 0 instructions: 30000002 cycles: 9586056 heartbeat IPC: 3.12231 cumulative IPC: 3.12955 (Simulation time: 0 hr 0 min 41 sec) 
Heartbeat CPU 0 instructions: 40000003 cycles: 12785437 heartbeat IPC: 3.1256 cumulative IPC: 3.12856 (Simulation time: 0 hr 0 min 54 sec) 
Heartbeat CPU 0 instructions: 50000000 cycles: 16041382 heartbeat IPC: 3.0713 cumulative IPC: 3.11694 (Simulation time: 0 hr 1 min 8 sec) 

Warmup complete CPU 0 instructions: 50000004 cycles: 16041383 (Simulation time: 0 hr 1 min 8 sec) 

Heartbeat CPU 0 instructions: 60000002 cycles: 31623698 heartbeat IPC: 0.641753 cumulative IPC: 0.641753 (Simulation time: 0 hr 1 min 25 sec) 
Heartbeat CPU 0 instructions: 70000003 cycles: 52615394 heartbeat IPC: 0.476379 cumulative IPC: 0.546836 (Simulation time: 0 hr 1 min 46 sec) 
Heartbeat CPU 0 instructions: 80000000 cycles: 59688314 heartbeat IPC: 1.41384 cumulative IPC: 0.687333 (Simulation time: 0 hr 1 min 58 sec) 
Heartbeat CPU 0 instructions: 90000001 cycles: 66916740 heartbeat IPC: 1.38343 cumulative IPC: 0.786235 (Simulation time: 0 hr 2 min 10 sec) 
Heartbeat CPU 0 instructions: 100000003 cycles: 74015592 heartbeat IPC: 1.40868 cumulative IPC: 0.862452 (Simulation time: 0 hr 2 min 23 sec) 
Finished CPU 0 instructions: 50000003 cycles: 57974210 cumulative IPC: 0.862453 (Simulation time: 0 hr 2 min 23 sec) 

ChampSim completed all CPUs

Region of Interest Statistics

CPU 0 cumulative IPC: 0.862453 instructions: 50000003 cycles: 57974210
L1D TOTAL     ACCESS:   21599799  HIT:   17020287  MISS:    4579512
L1D LOAD      ACCESS:    8616726  HIT:    6335550  MISS:    2281176
L1D RFO       ACCESS:    4580536  HIT:    4476121  MISS:     104415
L1D PREFETCH  ACCESS:    8402537  HIT:    6208616  MISS:    2193921
L1D WRITEBACK ACCESS:          0  HIT:          0  MISS:          0
L1D PREFETCH  REQUESTED:    8649442  ISSUED:    8552526  USEFUL:     105440  USELESS:    2088480
L1D AVERAGE MISS LATENCY: 20.3452 cycles
L1I TOTAL     ACCESS:   13310868  HIT:   11822793  MISS:    1488075
L1I LOAD      ACCESS:   10758211  HIT:   10656754  MISS:     101457
L1I RFO       ACCESS:          0  HIT:          0  MISS:          0
L1I PREFETCH  ACCESS:    2552657  HIT:    1166039  MISS:    1386618
L1I WRITEBACK ACCESS:          0  HIT:          0  MISS:          0
L1I PREFETCH  REQUESTED:    2687540  ISSUED:    2687267  USEFUL:    1008768  USELESS:     377835
L1I AVERAGE MISS LATENCY: 29.9736 cycles
L2C TOTAL     ACCESS:    7659740  HIT:    6626063  MISS:    1033677
L2C LOAD      ACCESS:    2284407  HIT:    2078052  MISS:     206355
L2C RFO       ACCESS:     103506  HIT:      62875  MISS:      40631
L2C PREFETCH  ACCESS:    5014966  HIT:    4229441  MISS:     785525
L2C WRITEBACK ACCESS:     256861  HIT:     255695  MISS:       1166
L2C PREFETCH  REQUESTED:    6634660  ISSUED:    6633148  USEFUL:      20067  USELESS:     764490
L2C AVERAGE MISS LATENCY: 48.0353 cycles
LLC TOTAL     ACCESS:    2262255  HIT:    2134584  MISS:     127671
LLC LOAD      ACCESS:     206116  HIT:     187777  MISS:      18339
LLC RFO       ACCESS:      40629  HIT:      31835  MISS:       8794
LLC PREFETCH  ACCESS:    1877384  HIT:    1777093  MISS:     100291
LLC WRITEBACK ACCESS:     138126  HIT:     137879  MISS:        247
LLC PREFETCH  REQUESTED:          0  ISSUED:          0  USEFUL:       9094  USELESS:      88411
LLC AVERAGE MISS LATENCY: 173.482 cycles
Major fault: 0 Minor fault: 6351
I-Shadow cache 408 bytes
Touched + WorthPF tables 196608 bytes 
MMA filter 174 bytes 
FNL filter 272 bytes 
TOTAL PREFETCHER STORAGE SIZE: 779094 bytes
CPU 0 L1I next line prefetcher final stats
CPU 0 L1D next line prefetcher final stats

DRAM Statistics
 CHANNEL 0
 RQ ROW_BUFFER_HIT:      24242  ROW_BUFFER_MISS:     103170
 DBUS_CONGESTED:      57191
 WQ ROW_BUFFER_HIT:       8891  ROW_BUFFER_MISS:      37262  FULL:          0

 AVG_CONGESTED_CYCLE: 5

CPU 0 Branch Prediction Accuracy: 99.4713% MPKI: 1.11484 Average ROB Occupancy at Mispredict: 120.279

Branch types
NOT_BRANCH: 39456615 78.9132%
BRANCH_DIRECT_JUMP: 445350 0.8907%
BRANCH_INDIRECT: 131149 0.262298%
BRANCH_CONDITIONAL: 8130196 16.2604%
BRANCH_DIRECT_CALL: 732485 1.46497%
BRANCH_INDIRECT_CALL: 172369 0.344738%
BRANCH_RETURN: 931558 1.86312%
BRANCH_OTHER: 0 0%

