Initialize SIGNATURE TABLE
ST_SET: 1
ST_WAY: 256
ST_TAG_BIT: 16
ST_TAG_MASK: ffff

Initialize PATTERN TABLE
PT_SET: 512
PT_WAY: 4
SIG_DELTA_BIT: 7
C_SIG_BIT: 4
C_DELTA_BIT: 4

Initialize PREFETCH FILTER
FILTER_SET: 1024

*** ChampSim Multicore Out-of-Order Simulator ***

Warmup Instructions: 50000000
Simulation Instructions: 50000000
Number of CPUs: 1
LLC sets: 2048
LLC ways: 16
Off-chip DRAM Size: 4096 MB Channels: 1 Width: 64-bit Data Rate: 3200 MT/s

CPU 0 runs /Users/gandhardeshpande/Desktop/CSE240C/HW1/ChampSim/ipc1_public/server_038.champsimtrace.xz
CPU 0 L1I next line prefetcher
Running FNL-MMA for L1I
CPU 0 L1D next line prefetcher
Heartbeat CPU 0 instructions: 10000001 cycles: 3320813 heartbeat IPC: 3.01131 cumulative IPC: 3.01131 (Simulation time: 0 hr 0 min 15 sec) 
Heartbeat CPU 0 instructions: 20000003 cycles: 6644548 heartbeat IPC: 3.00866 cumulative IPC: 3.00999 (Simulation time: 0 hr 0 min 30 sec) 
Heartbeat CPU 0 instructions: 30000003 cycles: 9964361 heartbeat IPC: 3.01222 cumulative IPC: 3.01073 (Simulation time: 0 hr 0 min 45 sec) 
Heartbeat CPU 0 instructions: 40000001 cycles: 13287951 heartbeat IPC: 3.00879 cumulative IPC: 3.01025 (Simulation time: 0 hr 0 min 59 sec) 
Heartbeat CPU 0 instructions: 50000001 cycles: 16609686 heartbeat IPC: 3.01047 cumulative IPC: 3.01029 (Simulation time: 0 hr 1 min 14 sec) 

Warmup complete CPU 0 instructions: 50000001 cycles: 16609686 (Simulation time: 0 hr 1 min 14 sec) 

Heartbeat CPU 0 instructions: 60000002 cycles: 23031273 heartbeat IPC: 1.55725 cumulative IPC: 1.55725 (Simulation time: 0 hr 1 min 30 sec) 
Heartbeat CPU 0 instructions: 70000001 cycles: 29417367 heartbeat IPC: 1.5659 cumulative IPC: 1.56156 (Simulation time: 0 hr 1 min 46 sec) 
Heartbeat CPU 0 instructions: 80000000 cycles: 35809648 heartbeat IPC: 1.56439 cumulative IPC: 1.5625 (Simulation time: 0 hr 2 min 2 sec) 
Heartbeat CPU 0 instructions: 90000001 cycles: 42212010 heartbeat IPC: 1.56192 cumulative IPC: 1.56236 (Simulation time: 0 hr 2 min 18 sec) 
*** Reached end of trace for Core: 0 Repeating trace: /Users/gandhardeshpande/Desktop/CSE240C/HW1/ChampSim/ipc1_public/server_038.champsimtrace.xz
Heartbeat CPU 0 instructions: 100000002 cycles: 48626194 heartbeat IPC: 1.55904 cumulative IPC: 1.56169 (Simulation time: 0 hr 2 min 34 sec) 
Finished CPU 0 instructions: 50000001 cycles: 32016508 cumulative IPC: 1.56169 (Simulation time: 0 hr 2 min 34 sec) 

ChampSim completed all CPUs

Region of Interest Statistics

CPU 0 cumulative IPC: 1.56169 instructions: 50000001 cycles: 32016508
L1D TOTAL     ACCESS:   18691468  HIT:   17709124  MISS:     982344
L1D LOAD      ACCESS:    6359048  HIT:    5865854  MISS:     493194
L1D RFO       ACCESS:    6211225  HIT:    6147004  MISS:      64221
L1D PREFETCH  ACCESS:    6121195  HIT:    5696266  MISS:     424929
L1D WRITEBACK ACCESS:          0  HIT:          0  MISS:          0
L1D PREFETCH  REQUESTED:    6395614  ISSUED:    6242860  USEFUL:     118168  USELESS:     306764
L1D AVERAGE MISS LATENCY: 29.1084 cycles
L1I TOTAL     ACCESS:   15853176  HIT:   11322861  MISS:    4530315
L1I LOAD      ACCESS:    9408606  HIT:    9400484  MISS:       8122
L1I RFO       ACCESS:          0  HIT:          0  MISS:          0
L1I PREFETCH  ACCESS:    6444570  HIT:    1922377  MISS:    4522193
L1I WRITEBACK ACCESS:          0  HIT:          0  MISS:          0
L1I PREFETCH  REQUESTED:    6626830  ISSUED:    6626830  USEFUL:    4077392  USELESS:     444811
L1I AVERAGE MISS LATENCY: 14.956 cycles
L2C TOTAL     ACCESS:    7808584  HIT:    7490972  MISS:     317612
L2C LOAD      ACCESS:     494681  HIT:     352505  MISS:     142176
L2C RFO       ACCESS:      63974  HIT:      36677  MISS:      27297
L2C PREFETCH  ACCESS:    6958237  HIT:    6811333  MISS:     146904
L2C WRITEBACK ACCESS:     291692  HIT:     290457  MISS:       1235
L2C PREFETCH  REQUESTED:    7719091  ISSUED:    7704164  USEFUL:       6883  USELESS:     139937
L2C AVERAGE MISS LATENCY: 45.015 cycles
LLC TOTAL     ACCESS:    1985537  HIT:    1931136  MISS:      54401
LLC LOAD      ACCESS:     142155  HIT:     129854  MISS:      12301
LLC RFO       ACCESS:      27295  HIT:      22453  MISS:       4842
LLC PREFETCH  ACCESS:    1671913  HIT:    1635143  MISS:      36770
LLC WRITEBACK ACCESS:     144174  HIT:     143686  MISS:        488
LLC PREFETCH  REQUESTED:          0  ISSUED:          0  USEFUL:       3682  USELESS:      32316
LLC AVERAGE MISS LATENCY: 167.745 cycles
Major fault: 0 Minor fault: 5526
I-Shadow cache 408 bytes
Touched + WorthPF tables 196608 bytes 
MMA filter 174 bytes 
FNL filter 272 bytes 
TOTAL PREFETCHER STORAGE SIZE: 779094 bytes
CPU 0 L1I next line prefetcher final stats
CPU 0 L1D next line prefetcher final stats

DRAM Statistics
 CHANNEL 0
 RQ ROW_BUFFER_HIT:       8930  ROW_BUFFER_MISS:      44982
 DBUS_CONGESTED:      25002
 WQ ROW_BUFFER_HIT:       1222  ROW_BUFFER_MISS:      11188  FULL:          0

 AVG_CONGESTED_CYCLE: 5

CPU 0 Branch Prediction Accuracy: 99.9279% MPKI: 0.12968 Average ROB Occupancy at Mispredict: 260.695

Branch types
NOT_BRANCH: 41006327 82.0127%
BRANCH_DIRECT_JUMP: 541914 1.08383%
BRANCH_INDIRECT: 59690 0.11938%
BRANCH_CONDITIONAL: 5915848 11.8317%
BRANCH_DIRECT_CALL: 1003588 2.00718%
BRANCH_INDIRECT_CALL: 234499 0.468998%
BRANCH_RETURN: 1238071 2.47614%
BRANCH_OTHER: 0 0%

