Initialize SIGNATURE TABLE
ST_SET: 1
ST_WAY: 256
ST_TAG_BIT: 16
ST_TAG_MASK: ffff

Initialize PATTERN TABLE
PT_SET: 512
PT_WAY: 4
SIG_DELTA_BIT: 7
C_SIG_BIT: 4
C_DELTA_BIT: 4

Initialize PREFETCH FILTER
FILTER_SET: 1024

*** ChampSim Multicore Out-of-Order Simulator ***

Warmup Instructions: 50000000
Simulation Instructions: 50000000
Number of CPUs: 1
LLC sets: 2048
LLC ways: 16
Off-chip DRAM Size: 4096 MB Channels: 1 Width: 64-bit Data Rate: 3200 MT/s

CPU 0 runs /Users/gandhardeshpande/Desktop/CSE240C/HW1/ChampSim/ipc1_public/server_023.champsimtrace.xz
CPU 0 L1I next line prefetcher
Running FNL-MMA for L1I
CPU 0 L1D next line prefetcher
Heartbeat CPU 0 instructions: 10000000 cycles: 3500442 heartbeat IPC: 2.85678 cumulative IPC: 2.85678 (Simulation time: 0 hr 0 min 15 sec) 
Heartbeat CPU 0 instructions: 20000000 cycles: 6999148 heartbeat IPC: 2.8582 cumulative IPC: 2.85749 (Simulation time: 0 hr 0 min 29 sec) 
Heartbeat CPU 0 instructions: 30000001 cycles: 10490872 heartbeat IPC: 2.86391 cumulative IPC: 2.85963 (Simulation time: 0 hr 0 min 44 sec) 
Heartbeat CPU 0 instructions: 40000003 cycles: 13988741 heartbeat IPC: 2.85888 cumulative IPC: 2.85944 (Simulation time: 0 hr 0 min 58 sec) 
Heartbeat CPU 0 instructions: 50000001 cycles: 17488436 heartbeat IPC: 2.85739 cumulative IPC: 2.85903 (Simulation time: 0 hr 1 min 13 sec) 

Warmup complete CPU 0 instructions: 50000001 cycles: 17488436 (Simulation time: 0 hr 1 min 13 sec) 

Heartbeat CPU 0 instructions: 60000002 cycles: 24229116 heartbeat IPC: 1.48353 cumulative IPC: 1.48353 (Simulation time: 0 hr 1 min 27 sec) 
Heartbeat CPU 0 instructions: 70000002 cycles: 31169175 heartbeat IPC: 1.44091 cumulative IPC: 1.46191 (Simulation time: 0 hr 1 min 42 sec) 
Heartbeat CPU 0 instructions: 80000000 cycles: 38017442 heartbeat IPC: 1.46022 cumulative IPC: 1.46135 (Simulation time: 0 hr 1 min 56 sec) 
Heartbeat CPU 0 instructions: 90000000 cycles: 44907373 heartbeat IPC: 1.45139 cumulative IPC: 1.45885 (Simulation time: 0 hr 2 min 10 sec) 
Heartbeat CPU 0 instructions: 100000001 cycles: 51743968 heartbeat IPC: 1.46272 cumulative IPC: 1.45962 (Simulation time: 0 hr 2 min 24 sec) 
Finished CPU 0 instructions: 50000000 cycles: 34255532 cumulative IPC: 1.45962 (Simulation time: 0 hr 2 min 24 sec) 

ChampSim completed all CPUs

Region of Interest Statistics

CPU 0 cumulative IPC: 1.45962 instructions: 50000000 cycles: 34255532
L1D TOTAL     ACCESS:   19355809  HIT:   17889012  MISS:    1466797
L1D LOAD      ACCESS:    6847303  HIT:    6186103  MISS:     661200
L1D RFO       ACCESS:    5983109  HIT:    5721469  MISS:     261640
L1D PREFETCH  ACCESS:    6525397  HIT:    5981440  MISS:     543957
L1D WRITEBACK ACCESS:          0  HIT:          0  MISS:          0
L1D PREFETCH  REQUESTED:    6896946  ISSUED:    6775649  USEFUL:     129632  USELESS:     414332
L1D AVERAGE MISS LATENCY: 24.8627 cycles
L1I TOTAL     ACCESS:   13671309  HIT:   10540125  MISS:    3131184
L1I LOAD      ACCESS:    9432234  HIT:    9352163  MISS:      80071
L1I RFO       ACCESS:          0  HIT:          0  MISS:          0
L1I PREFETCH  ACCESS:    4239075  HIT:    1187962  MISS:    3051113
L1I WRITEBACK ACCESS:          0  HIT:          0  MISS:          0
L1I PREFETCH  REQUESTED:    4409087  ISSUED:    4407776  USEFUL:    2396490  USELESS:     654629
L1I AVERAGE MISS LATENCY: 18.4121 cycles
L2C TOTAL     ACCESS:    6157098  HIT:    5441523  MISS:     715575
L2C LOAD      ACCESS:     635376  HIT:     501241  MISS:     134135
L2C RFO       ACCESS:     259382  HIT:     172210  MISS:      87172
L2C PREFETCH  ACCESS:    4763038  HIT:    4271986  MISS:     491052
L2C WRITEBACK ACCESS:     499302  HIT:     496086  MISS:       3216
L2C PREFETCH  REQUESTED:    5914753  ISSUED:    5903635  USEFUL:      15133  USELESS:     475931
L2C AVERAGE MISS LATENCY: 41.9531 cycles
LLC TOTAL     ACCESS:    2305939  HIT:    2255408  MISS:      50531
LLC LOAD      ACCESS:     133887  HIT:     127655  MISS:       6232
LLC RFO       ACCESS:      87162  HIT:      69341  MISS:      17821
LLC PREFETCH  ACCESS:    1937681  HIT:    1911426  MISS:      26255
LLC WRITEBACK ACCESS:     147209  HIT:     146986  MISS:        223
LLC PREFETCH  REQUESTED:          0  ISSUED:          0  USEFUL:       2575  USELESS:      23751
LLC AVERAGE MISS LATENCY: 181.542 cycles
Major fault: 0 Minor fault: 2766
I-Shadow cache 408 bytes
Touched + WorthPF tables 196608 bytes 
MMA filter 174 bytes 
FNL filter 272 bytes 
TOTAL PREFETCHER STORAGE SIZE: 779094 bytes
CPU 0 L1I next line prefetcher final stats
CPU 0 L1D next line prefetcher final stats

DRAM Statistics
 CHANNEL 0
 RQ ROW_BUFFER_HIT:      15243  ROW_BUFFER_MISS:      35053
 DBUS_CONGESTED:      32829
 WQ ROW_BUFFER_HIT:       2418  ROW_BUFFER_MISS:      18852  FULL:          0

 AVG_CONGESTED_CYCLE: 6

CPU 0 Branch Prediction Accuracy: 99.6798% MPKI: 0.58608 Average ROB Occupancy at Mispredict: 147.423

Branch types
NOT_BRANCH: 40848322 81.6966%
BRANCH_DIRECT_JUMP: 548372 1.09674%
BRANCH_INDIRECT: 189802 0.379604%
BRANCH_CONDITIONAL: 6372772 12.7455%
BRANCH_DIRECT_CALL: 862207 1.72441%
BRANCH_INDIRECT_CALL: 158149 0.316298%
BRANCH_RETURN: 1020345 2.04069%
BRANCH_OTHER: 0 0%

