Initialize SIGNATURE TABLE
ST_SET: 1
ST_WAY: 256
ST_TAG_BIT: 16
ST_TAG_MASK: ffff

Initialize PATTERN TABLE
PT_SET: 512
PT_WAY: 4
SIG_DELTA_BIT: 7
C_SIG_BIT: 4
C_DELTA_BIT: 4

Initialize PREFETCH FILTER
FILTER_SET: 1024

*** ChampSim Multicore Out-of-Order Simulator ***

Warmup Instructions: 50000000
Simulation Instructions: 50000000
Number of CPUs: 1
LLC sets: 2048
LLC ways: 16
Off-chip DRAM Size: 4096 MB Channels: 1 Width: 64-bit Data Rate: 3200 MT/s

CPU 0 runs /Users/gandhardeshpande/Desktop/CSE240C/HW1/ChampSim/ipc1_public/server_022.champsimtrace.xz
CPU 0 L1I next line prefetcher
Running FNL-MMA for L1I
CPU 0 L1D next line prefetcher
Heartbeat CPU 0 instructions: 10000002 cycles: 3623561 heartbeat IPC: 2.75972 cumulative IPC: 2.75972 (Simulation time: 0 hr 0 min 15 sec) 
Heartbeat CPU 0 instructions: 20000001 cycles: 7253008 heartbeat IPC: 2.75524 cumulative IPC: 2.75748 (Simulation time: 0 hr 0 min 30 sec) 
Heartbeat CPU 0 instructions: 30000003 cycles: 10876394 heartbeat IPC: 2.75985 cumulative IPC: 2.75827 (Simulation time: 0 hr 0 min 45 sec) 
Heartbeat CPU 0 instructions: 40000003 cycles: 14507169 heartbeat IPC: 2.75423 cumulative IPC: 2.75726 (Simulation time: 0 hr 1 min 0 sec) 
Heartbeat CPU 0 instructions: 50000002 cycles: 18128001 heartbeat IPC: 2.7618 cumulative IPC: 2.75816 (Simulation time: 0 hr 1 min 15 sec) 

Warmup complete CPU 0 instructions: 50000002 cycles: 18128001 (Simulation time: 0 hr 1 min 15 sec) 

Heartbeat CPU 0 instructions: 60000000 cycles: 34754734 heartbeat IPC: 0.601441 cumulative IPC: 0.601441 (Simulation time: 0 hr 1 min 35 sec) 
Heartbeat CPU 0 instructions: 70000001 cycles: 51425819 heartbeat IPC: 0.599841 cumulative IPC: 0.60064 (Simulation time: 0 hr 1 min 55 sec) 
Heartbeat CPU 0 instructions: 80000001 cycles: 67978009 heartbeat IPC: 0.60415 cumulative IPC: 0.601805 (Simulation time: 0 hr 2 min 15 sec) 
Heartbeat CPU 0 instructions: 90000003 cycles: 84786048 heartbeat IPC: 0.594954 cumulative IPC: 0.600078 (Simulation time: 0 hr 2 min 36 sec) 
Heartbeat CPU 0 instructions: 100000003 cycles: 101301031 heartbeat IPC: 0.605511 cumulative IPC: 0.601156 (Simulation time: 0 hr 2 min 56 sec) 
Finished CPU 0 instructions: 50000001 cycles: 83173030 cumulative IPC: 0.601156 (Simulation time: 0 hr 2 min 56 sec) 

ChampSim completed all CPUs

Region of Interest Statistics

CPU 0 cumulative IPC: 0.601156 instructions: 50000001 cycles: 83173030
L1D TOTAL     ACCESS:   18691670  HIT:   16480892  MISS:    2210778
L1D LOAD      ACCESS:    7053871  HIT:    6351335  MISS:     702536
L1D RFO       ACCESS:    5876370  HIT:    4896883  MISS:     979487
L1D PREFETCH  ACCESS:    5761429  HIT:    5232674  MISS:     528755
L1D WRITEBACK ACCESS:          0  HIT:          0  MISS:          0
L1D PREFETCH  REQUESTED:    7095683  ISSUED:    6887852  USEFUL:     207540  USELESS:     321220
L1D AVERAGE MISS LATENCY: 179.891 cycles
L1I TOTAL     ACCESS:   14923855  HIT:   12000488  MISS:    2923367
L1I LOAD      ACCESS:   10124402  HIT:   10090932  MISS:      33470
L1I RFO       ACCESS:          0  HIT:          0  MISS:          0
L1I PREFETCH  ACCESS:    4799453  HIT:    1909556  MISS:    2889897
L1I WRITEBACK ACCESS:          0  HIT:          0  MISS:          0
L1I PREFETCH  REQUESTED:    4972110  ISSUED:    4972110  USEFUL:    2554267  USELESS:     335631
L1I AVERAGE MISS LATENCY: 17.2453 cycles
L2C TOTAL     ACCESS:    7389003  HIT:    5527559  MISS:    1861444
L2C LOAD      ACCESS:     488344  HIT:     244823  MISS:     243521
L2C RFO       ACCESS:     978997  HIT:      21052  MISS:     957945
L2C PREFETCH  ACCESS:    4736466  HIT:    4078149  MISS:     658317
L2C WRITEBACK ACCESS:    1185196  HIT:    1183535  MISS:       1661
L2C PREFETCH  REQUESTED:    4841518  ISSUED:    4833557  USEFUL:      21173  USELESS:     637227
L2C AVERAGE MISS LATENCY: 218.143 cycles
LLC TOTAL     ACCESS:    4202443  HIT:    2796137  MISS:    1406306
LLC LOAD      ACCESS:     243392  HIT:     169327  MISS:      74065
LLC RFO       ACCESS:     957915  HIT:     139788  MISS:     818127
LLC PREFETCH  ACCESS:    1884470  HIT:    1372241  MISS:     512229
LLC WRITEBACK ACCESS:    1116666  HIT:    1114781  MISS:       1885
LLC PREFETCH  REQUESTED:          0  ISSUED:          0  USEFUL:      28870  USELESS:     483512
LLC AVERAGE MISS LATENCY: 293.567 cycles
Major fault: 0 Minor fault: 23505
I-Shadow cache 408 bytes
Touched + WorthPF tables 196608 bytes 
MMA filter 174 bytes 
FNL filter 272 bytes 
TOTAL PREFETCHER STORAGE SIZE: 779094 bytes
CPU 0 L1I next line prefetcher final stats
CPU 0 L1D next line prefetcher final stats

DRAM Statistics
 CHANNEL 0
 RQ ROW_BUFFER_HIT:     407734  ROW_BUFFER_MISS:     996453
 DBUS_CONGESTED:    1457357
 WQ ROW_BUFFER_HIT:     257050  ROW_BUFFER_MISS:     646437  FULL:          0

 AVG_CONGESTED_CYCLE: 6

CPU 0 Branch Prediction Accuracy: 99.8317% MPKI: 0.27564 Average ROB Occupancy at Mispredict: 221

Branch types
NOT_BRANCH: 41811174 83.6223%
BRANCH_DIRECT_JUMP: 445742 0.891484%
BRANCH_INDIRECT: 48876 0.097752%
BRANCH_CONDITIONAL: 5859410 11.7188%
BRANCH_DIRECT_CALL: 758268 1.51654%
BRANCH_INDIRECT_CALL: 159103 0.318206%
BRANCH_RETURN: 917373 1.83475%
BRANCH_OTHER: 0 0%

