Initialize SIGNATURE TABLE
ST_SET: 1
ST_WAY: 256
ST_TAG_BIT: 16
ST_TAG_MASK: ffff

Initialize PATTERN TABLE
PT_SET: 512
PT_WAY: 4
SIG_DELTA_BIT: 7
C_SIG_BIT: 4
C_DELTA_BIT: 4

Initialize PREFETCH FILTER
FILTER_SET: 1024

*** ChampSim Multicore Out-of-Order Simulator ***

Warmup Instructions: 50000000
Simulation Instructions: 50000000
Number of CPUs: 1
LLC sets: 2048
LLC ways: 16
Off-chip DRAM Size: 4096 MB Channels: 1 Width: 64-bit Data Rate: 3200 MT/s

CPU 0 runs /Users/gandhardeshpande/Desktop/CSE240C/HW1/ChampSim/ipc1_public/spec_gobmk_001.champsimtrace.xz
CPU 0 L1I next line prefetcher
Running FNL-MMA for L1I
CPU 0 L1D next line prefetcher
Heartbeat CPU 0 instructions: 10000003 cycles: 3507052 heartbeat IPC: 2.8514 cumulative IPC: 2.8514 (Simulation time: 0 hr 0 min 12 sec) 
Heartbeat CPU 0 instructions: 20000002 cycles: 6987495 heartbeat IPC: 2.8732 cumulative IPC: 2.86226 (Simulation time: 0 hr 0 min 24 sec) 
Heartbeat CPU 0 instructions: 30000002 cycles: 10506447 heartbeat IPC: 2.84176 cumulative IPC: 2.85539 (Simulation time: 0 hr 0 min 36 sec) 
Heartbeat CPU 0 instructions: 40000001 cycles: 14025470 heartbeat IPC: 2.8417 cumulative IPC: 2.85195 (Simulation time: 0 hr 0 min 49 sec) 
Heartbeat CPU 0 instructions: 50000001 cycles: 17565756 heartbeat IPC: 2.82463 cumulative IPC: 2.84645 (Simulation time: 0 hr 1 min 1 sec) 

Warmup complete CPU 0 instructions: 50000001 cycles: 17565756 (Simulation time: 0 hr 1 min 1 sec) 

Heartbeat CPU 0 instructions: 60000000 cycles: 26381927 heartbeat IPC: 1.13428 cumulative IPC: 1.13428 (Simulation time: 0 hr 1 min 10 sec) 
Heartbeat CPU 0 instructions: 70000002 cycles: 34840520 heartbeat IPC: 1.18223 cumulative IPC: 1.15776 (Simulation time: 0 hr 1 min 19 sec) 
Heartbeat CPU 0 instructions: 80000003 cycles: 43722891 heartbeat IPC: 1.12583 cumulative IPC: 1.14691 (Simulation time: 0 hr 1 min 28 sec) 
Heartbeat CPU 0 instructions: 90000001 cycles: 52254354 heartbeat IPC: 1.17213 cumulative IPC: 1.15312 (Simulation time: 0 hr 1 min 37 sec) 
Heartbeat CPU 0 instructions: 100000003 cycles: 61116463 heartbeat IPC: 1.1284 cumulative IPC: 1.14809 (Simulation time: 0 hr 1 min 46 sec) 
Finished CPU 0 instructions: 50000002 cycles: 43550707 cumulative IPC: 1.14809 (Simulation time: 0 hr 1 min 46 sec) 

ChampSim completed all CPUs

Region of Interest Statistics

CPU 0 cumulative IPC: 1.14809 instructions: 50000002 cycles: 43550707
L1D TOTAL     ACCESS:   18006125  HIT:   17626565  MISS:     379560
L1D LOAD      ACCESS:    7221602  HIT:    7086622  MISS:     134980
L1D RFO       ACCESS:    3702024  HIT:    3597493  MISS:     104531
L1D PREFETCH  ACCESS:    7082499  HIT:    6942450  MISS:     140049
L1D WRITEBACK ACCESS:          0  HIT:          0  MISS:          0
L1D PREFETCH  REQUESTED:    7226943  ISSUED:    7144112  USEFUL:      45331  USELESS:      94724
L1D AVERAGE MISS LATENCY: 32.7716 cycles
L1I TOTAL     ACCESS:   12462842  HIT:   11191801  MISS:    1271041
L1I LOAD      ACCESS:    8957480  HIT:    8844911  MISS:     112569
L1I RFO       ACCESS:          0  HIT:          0  MISS:          0
L1I PREFETCH  ACCESS:    3505362  HIT:    2346890  MISS:    1158472
L1I WRITEBACK ACCESS:          0  HIT:          0  MISS:          0
L1I PREFETCH  REQUESTED:    3618966  ISSUED:    3618961  USEFUL:     617648  USELESS:     540795
L1I AVERAGE MISS LATENCY: 15.1288 cycles
L2C TOTAL     ACCESS:    2493894  HIT:    2368192  MISS:     125702
L2C LOAD      ACCESS:     206512  HIT:     171373  MISS:      35139
L2C RFO       ACCESS:     104190  HIT:      70575  MISS:      33615
L2C PREFETCH  ACCESS:    2043905  HIT:    1986974  MISS:      56931
L2C WRITEBACK ACCESS:     139287  HIT:     139270  MISS:         17
L2C PREFETCH  REQUESTED:    1933524  ISSUED:    1933366  USEFUL:       5094  USELESS:      52351
L2C AVERAGE MISS LATENCY: 62.5009 cycles
LLC TOTAL     ACCESS:     343021  HIT:     305720  MISS:      37301
LLC LOAD      ACCESS:      35137  HIT:      27074  MISS:       8063
LLC RFO       ACCESS:      33615  HIT:      28213  MISS:       5402
LLC PREFETCH  ACCESS:     229985  HIT:     206456  MISS:      23529
LLC WRITEBACK ACCESS:      44284  HIT:      43977  MISS:        307
LLC PREFETCH  REQUESTED:          0  ISSUED:          0  USEFUL:       1573  USELESS:      20093
LLC AVERAGE MISS LATENCY: 178.699 cycles
Major fault: 0 Minor fault: 4156
I-Shadow cache 408 bytes
Touched + WorthPF tables 196608 bytes 
MMA filter 174 bytes 
FNL filter 272 bytes 
TOTAL PREFETCHER STORAGE SIZE: 779094 bytes
CPU 0 L1I next line prefetcher final stats
CPU 0 L1D next line prefetcher final stats

DRAM Statistics
 CHANNEL 0
 RQ ROW_BUFFER_HIT:       3901  ROW_BUFFER_MISS:      33093
 DBUS_CONGESTED:      22856
 WQ ROW_BUFFER_HIT:       1267  ROW_BUFFER_MISS:      14491  FULL:          0

 AVG_CONGESTED_CYCLE: 4

CPU 0 Branch Prediction Accuracy: 94.7729% MPKI: 9.72684 Average ROB Occupancy at Mispredict: 53.5911

Branch types
NOT_BRANCH: 40695383 81.3908%
BRANCH_DIRECT_JUMP: 422107 0.844214%
BRANCH_INDIRECT: 65 0.00013%
BRANCH_CONDITIONAL: 8105005 16.21%
BRANCH_DIRECT_CALL: 374913 0.749826%
BRANCH_INDIRECT_CALL: 13657 0.027314%
BRANCH_RETURN: 388556 0.777112%
BRANCH_OTHER: 0 0%

