Initialize SIGNATURE TABLE
ST_SET: 1
ST_WAY: 256
ST_TAG_BIT: 16
ST_TAG_MASK: ffff

Initialize PATTERN TABLE
PT_SET: 512
PT_WAY: 4
SIG_DELTA_BIT: 7
C_SIG_BIT: 4
C_DELTA_BIT: 4

Initialize PREFETCH FILTER
FILTER_SET: 1024

*** ChampSim Multicore Out-of-Order Simulator ***

Warmup Instructions: 50000000
Simulation Instructions: 50000000
Number of CPUs: 1
LLC sets: 2048
LLC ways: 16
Off-chip DRAM Size: 4096 MB Channels: 1 Width: 64-bit Data Rate: 3200 MT/s

CPU 0 runs /Users/gandhardeshpande/Desktop/CSE240C/HW1/ChampSim/ipc1_public/server_023.champsimtrace.xz
CPU 0 L1I next line prefetcher
CPU 0 L1D next line prefetcher
Heartbeat CPU 0 instructions: 10000000 cycles: 3502411 heartbeat IPC: 2.85518 cumulative IPC: 2.85518 (Simulation time: 0 hr 0 min 15 sec) 
Heartbeat CPU 0 instructions: 20000000 cycles: 7002280 heartbeat IPC: 2.85725 cumulative IPC: 2.85621 (Simulation time: 0 hr 0 min 29 sec) 
Heartbeat CPU 0 instructions: 30000001 cycles: 10494319 heartbeat IPC: 2.86366 cumulative IPC: 2.85869 (Simulation time: 0 hr 0 min 44 sec) 
Heartbeat CPU 0 instructions: 40000003 cycles: 13992776 heartbeat IPC: 2.8584 cumulative IPC: 2.85862 (Simulation time: 0 hr 0 min 59 sec) 
Heartbeat CPU 0 instructions: 50000001 cycles: 17493300 heartbeat IPC: 2.85671 cumulative IPC: 2.85824 (Simulation time: 0 hr 1 min 13 sec) 

Warmup complete CPU 0 instructions: 50000001 cycles: 17493300 (Simulation time: 0 hr 1 min 13 sec) 

Heartbeat CPU 0 instructions: 60000002 cycles: 24248308 heartbeat IPC: 1.48038 cumulative IPC: 1.48038 (Simulation time: 0 hr 1 min 28 sec) 
Heartbeat CPU 0 instructions: 70000002 cycles: 31212834 heartbeat IPC: 1.43585 cumulative IPC: 1.45778 (Simulation time: 0 hr 1 min 43 sec) 
Heartbeat CPU 0 instructions: 80000000 cycles: 38075962 heartbeat IPC: 1.45706 cumulative IPC: 1.45754 (Simulation time: 0 hr 1 min 57 sec) 
Heartbeat CPU 0 instructions: 90000000 cycles: 44963118 heartbeat IPC: 1.45198 cumulative IPC: 1.45614 (Simulation time: 0 hr 2 min 11 sec) 
Heartbeat CPU 0 instructions: 100000001 cycles: 51816574 heartbeat IPC: 1.45912 cumulative IPC: 1.45674 (Simulation time: 0 hr 2 min 25 sec) 
Finished CPU 0 instructions: 50000000 cycles: 34323274 cumulative IPC: 1.45674 (Simulation time: 0 hr 2 min 25 sec) 

ChampSim completed all CPUs

Region of Interest Statistics

CPU 0 cumulative IPC: 1.45674 instructions: 50000000 cycles: 34323274
L1D TOTAL     ACCESS:   19367153  HIT:   17900364  MISS:    1466789
L1D LOAD      ACCESS:    6852198  HIT:    6191357  MISS:     660841
L1D RFO       ACCESS:    5983855  HIT:    5722242  MISS:     261613
L1D PREFETCH  ACCESS:    6531100  HIT:    5986765  MISS:     544335
L1D WRITEBACK ACCESS:          0  HIT:          0  MISS:          0
L1D PREFETCH  REQUESTED:    6901839  ISSUED:    6780656  USEFUL:     129992  USELESS:     414351
L1D AVERAGE MISS LATENCY: 24.858 cycles
L1I TOTAL     ACCESS:   13468505  HIT:   10355491  MISS:    3113014
L1I LOAD      ACCESS:    9427193  HIT:    9333184  MISS:      94009
L1I RFO       ACCESS:          0  HIT:          0  MISS:          0
L1I PREFETCH  ACCESS:    4041312  HIT:    1022307  MISS:    3019005
L1I WRITEBACK ACCESS:          0  HIT:          0  MISS:          0
L1I PREFETCH  REQUESTED:    4174739  ISSUED:    4174419  USEFUL:    2381715  USELESS:     637298
L1I AVERAGE MISS LATENCY: 18.6268 cycles
L2C TOTAL     ACCESS:    6178464  HIT:    5444239  MISS:     734225
L2C LOAD      ACCESS:     646059  HIT:     509684  MISS:     136375
L2C RFO       ACCESS:     259366  HIT:     174408  MISS:      84958
L2C PREFETCH  ACCESS:    4773791  HIT:    4263934  MISS:     509857
L2C WRITEBACK ACCESS:     499248  HIT:     496213  MISS:       3035
L2C PREFETCH  REQUESTED:    5929895  ISSUED:    5921102  USEFUL:      15821  USELESS:     494219
L2C AVERAGE MISS LATENCY: 41.9797 cycles
LLC TOTAL     ACCESS:    2362623  HIT:    2308040  MISS:      54583
LLC LOAD      ACCESS:     136140  HIT:     129688  MISS:       6452
LLC RFO       ACCESS:      84948  HIT:      67175  MISS:      17773
LLC PREFETCH  ACCESS:    1996509  HIT:    1966444  MISS:      30065
LLC WRITEBACK ACCESS:     145026  HIT:     144733  MISS:        293
LLC PREFETCH  REQUESTED:          0  ISSUED:          0  USEFUL:       2689  USELESS:      26424
LLC AVERAGE MISS LATENCY: 181.278 cycles
Major fault: 0 Minor fault: 2767
I-Shadow cache 408 bytes
Touched + WorthPF tables 24576 bytes 
MMA filter 174 bytes 
FNL filter 272 bytes 
TOTAL PREFETCHER STORAGE SIZE: 98134 bytes
CPU 0 L1I next line prefetcher final stats
CPU 0 L1D next line prefetcher final stats

DRAM Statistics
 CHANNEL 0
 RQ ROW_BUFFER_HIT:      16101  ROW_BUFFER_MISS:      38178
 DBUS_CONGESTED:      33923
 WQ ROW_BUFFER_HIT:       2690  ROW_BUFFER_MISS:      19399  FULL:          0

 AVG_CONGESTED_CYCLE: 6

CPU 0 Branch Prediction Accuracy: 99.6798% MPKI: 0.58608 Average ROB Occupancy at Mispredict: 146.514

Branch types
NOT_BRANCH: 40848322 81.6966%
BRANCH_DIRECT_JUMP: 548372 1.09674%
BRANCH_INDIRECT: 189802 0.379604%
BRANCH_CONDITIONAL: 6372772 12.7455%
BRANCH_DIRECT_CALL: 862207 1.72441%
BRANCH_INDIRECT_CALL: 158149 0.316298%
BRANCH_RETURN: 1020345 2.04069%
BRANCH_OTHER: 0 0%

