Initialize SIGNATURE TABLE
ST_SET: 1
ST_WAY: 256
ST_TAG_BIT: 16
ST_TAG_MASK: ffff

Initialize PATTERN TABLE
PT_SET: 512
PT_WAY: 4
SIG_DELTA_BIT: 7
C_SIG_BIT: 4
C_DELTA_BIT: 4

Initialize PREFETCH FILTER
FILTER_SET: 1024

*** ChampSim Multicore Out-of-Order Simulator ***

Warmup Instructions: 50000000
Simulation Instructions: 50000000
Number of CPUs: 1
LLC sets: 2048
LLC ways: 16
Off-chip DRAM Size: 4096 MB Channels: 1 Width: 64-bit Data Rate: 3200 MT/s

CPU 0 runs /Users/gandhardeshpande/Desktop/CSE240C/HW1/ChampSim/ipc1_public/spec_gcc_003.champsimtrace.xz
CPU 0 L1I next line prefetcher
CPU 0 L1D next line prefetcher
Heartbeat CPU 0 instructions: 10000001 cycles: 3483064 heartbeat IPC: 2.87104 cumulative IPC: 2.87104 (Simulation time: 0 hr 0 min 11 sec) 
Heartbeat CPU 0 instructions: 20000000 cycles: 6949404 heartbeat IPC: 2.88489 cumulative IPC: 2.87794 (Simulation time: 0 hr 0 min 21 sec) 
Heartbeat CPU 0 instructions: 30000002 cycles: 10393505 heartbeat IPC: 2.90352 cumulative IPC: 2.88642 (Simulation time: 0 hr 0 min 31 sec) 
Heartbeat CPU 0 instructions: 40000000 cycles: 13859884 heartbeat IPC: 2.88485 cumulative IPC: 2.88603 (Simulation time: 0 hr 0 min 40 sec) 
Heartbeat CPU 0 instructions: 50000001 cycles: 17170326 heartbeat IPC: 3.02075 cumulative IPC: 2.912 (Simulation time: 0 hr 0 min 50 sec) 

Warmup complete CPU 0 instructions: 50000001 cycles: 17170326 (Simulation time: 0 hr 0 min 50 sec) 

Heartbeat CPU 0 instructions: 60000000 cycles: 56575730 heartbeat IPC: 0.253772 cumulative IPC: 0.253772 (Simulation time: 0 hr 1 min 17 sec) 
Heartbeat CPU 0 instructions: 70000000 cycles: 98223785 heartbeat IPC: 0.240107 cumulative IPC: 0.246751 (Simulation time: 0 hr 1 min 45 sec) 
Heartbeat CPU 0 instructions: 80000003 cycles: 141008599 heartbeat IPC: 0.233728 cumulative IPC: 0.242251 (Simulation time: 0 hr 2 min 14 sec) 
Heartbeat CPU 0 instructions: 90000002 cycles: 177026718 heartbeat IPC: 0.277638 cumulative IPC: 0.250225 (Simulation time: 0 hr 2 min 39 sec) 
Heartbeat CPU 0 instructions: 100000001 cycles: 222435706 heartbeat IPC: 0.220221 cumulative IPC: 0.243587 (Simulation time: 0 hr 3 min 9 sec) 
Finished CPU 0 instructions: 50000000 cycles: 205265380 cumulative IPC: 0.243587 (Simulation time: 0 hr 3 min 9 sec) 

ChampSim completed all CPUs

Region of Interest Statistics

CPU 0 cumulative IPC: 0.243587 instructions: 50000000 cycles: 205265380
L1D TOTAL     ACCESS:   16846746  HIT:   11122499  MISS:    5724247
L1D LOAD      ACCESS:    4564863  HIT:    4181818  MISS:     383045
L1D RFO       ACCESS:    8205212  HIT:    3153624  MISS:    5051588
L1D PREFETCH  ACCESS:    4076671  HIT:    3787057  MISS:     289614
L1D WRITEBACK ACCESS:          0  HIT:          0  MISS:          0
L1D PREFETCH  REQUESTED:    4582172  ISSUED:    4522758  USEFUL:     152226  USELESS:     137568
L1D AVERAGE MISS LATENCY: 489.253 cycles
L1I TOTAL     ACCESS:   13520872  HIT:   12242594  MISS:    1278278
L1I LOAD      ACCESS:   11271892  HIT:   11166437  MISS:     105455
L1I RFO       ACCESS:          0  HIT:          0  MISS:          0
L1I PREFETCH  ACCESS:    2248980  HIT:    1076157  MISS:    1172823
L1I WRITEBACK ACCESS:          0  HIT:          0  MISS:          0
L1I PREFETCH  REQUESTED:    2396967  ISSUED:    2391593  USEFUL:     748363  USELESS:     424359
L1I AVERAGE MISS LATENCY: 54.0347 cycles
L2C TOTAL     ACCESS:   12461956  HIT:    6390956  MISS:    6071000
L2C LOAD      ACCESS:     261605  HIT:      84276  MISS:     177329
L2C RFO       ACCESS:    5049809  HIT:       6461  MISS:    5043348
L2C PREFETCH  ACCESS:    1992660  HIT:    1142505  MISS:     850155
L2C WRITEBACK ACCESS:    5157882  HIT:    5157714  MISS:        168
L2C PREFETCH  REQUESTED:    2360377  ISSUED:    2360023  USEFUL:      34020  USELESS:     813308
L2C AVERAGE MISS LATENCY: 459.642 cycles
LLC TOTAL     ACCESS:   12020936  HIT:    7419210  MISS:    4601726
LLC LOAD      ACCESS:     177287  HIT:     133538  MISS:      43749
LLC RFO       ACCESS:    5043347  HIT:     754866  MISS:    4288481
LLC PREFETCH  ACCESS:    1666603  HIT:    1397107  MISS:     269496
LLC WRITEBACK ACCESS:    5133699  HIT:    5133699  MISS:          0
LLC PREFETCH  REQUESTED:          0  ISSUED:          0  USEFUL:      13219  USELESS:     256275
LLC AVERAGE MISS LATENCY: 574.487 cycles
Major fault: 0 Minor fault: 2817
I-Shadow cache 408 bytes
Touched + WorthPF tables 24576 bytes 
MMA filter 174 bytes 
FNL filter 272 bytes 
TOTAL PREFETCHER STORAGE SIZE: 98134 bytes
CPU 0 L1I next line prefetcher final stats
CPU 0 L1D next line prefetcher final stats

DRAM Statistics
 CHANNEL 0
 RQ ROW_BUFFER_HIT:    1388984  ROW_BUFFER_MISS:    3211034
 DBUS_CONGESTED:    7932130
 WQ ROW_BUFFER_HIT:    1146580  ROW_BUFFER_MISS:    3170912  FULL:        968

 AVG_CONGESTED_CYCLE: 6

CPU 0 Branch Prediction Accuracy: 99.665% MPKI: 0.78342 Average ROB Occupancy at Mispredict: 119.449

Branch types
NOT_BRANCH: 38305856 76.6117%
BRANCH_DIRECT_JUMP: 384281 0.768562%
BRANCH_INDIRECT: 71949 0.143898%
BRANCH_CONDITIONAL: 9879826 19.7597%
BRANCH_DIRECT_CALL: 650586 1.30117%
BRANCH_INDIRECT_CALL: 28456 0.056912%
BRANCH_RETURN: 679046 1.35809%
BRANCH_OTHER: 0 0%

