
*** ChampSim Multicore Out-of-Order Simulator ***

Warmup Instructions: 10000000
Simulation Instructions: 100000000
Configuration: 2
Number of CPUs: 1
LLC sets: 2048
LLC ways: 16
Off-chip DRAM Channels: 1 Width: 64-bit Data Rate: 1600 MT/s

CPU 0 runs /datasets/cs240c-wi22-a00-public/data/Assignment2-gz/leslie3d_1186B.trace.gz
CPU 0 L1D next line prefetcher
CPU 0 L2C IP-based stride prefetcher
Heartbeat CPU 0 instructions: 1000002 cycles: 564518 heartbeat IPC: 1.77143 cumulative IPC: 1.77143 (Simulation time: 0 hr 0 min 46 sec) 
Heartbeat CPU 0 instructions: 2000000 cycles: 1215884 heartbeat IPC: 1.53523 cumulative IPC: 1.64489 (Simulation time: 0 hr 1 min 31 sec) 
Heartbeat CPU 0 instructions: 3000000 cycles: 1867642 heartbeat IPC: 1.53431 cumulative IPC: 1.6063 (Simulation time: 0 hr 2 min 16 sec) 
Heartbeat CPU 0 instructions: 4000000 cycles: 2473228 heartbeat IPC: 1.65129 cumulative IPC: 1.61732 (Simulation time: 0 hr 3 min 3 sec) 
Heartbeat CPU 0 instructions: 5000000 cycles: 3083572 heartbeat IPC: 1.63842 cumulative IPC: 1.6215 (Simulation time: 0 hr 3 min 53 sec) 
Heartbeat CPU 0 instructions: 6000000 cycles: 3735297 heartbeat IPC: 1.53439 cumulative IPC: 1.6063 (Simulation time: 0 hr 4 min 35 sec) 
Heartbeat CPU 0 instructions: 7000001 cycles: 4386528 heartbeat IPC: 1.53556 cumulative IPC: 1.5958 (Simulation time: 0 hr 5 min 19 sec) 
Heartbeat CPU 0 instructions: 8000000 cycles: 4951111 heartbeat IPC: 1.77122 cumulative IPC: 1.6158 (Simulation time: 0 hr 5 min 58 sec) 
Heartbeat CPU 0 instructions: 9000003 cycles: 5602403 heartbeat IPC: 1.53541 cumulative IPC: 1.60645 (Simulation time: 0 hr 6 min 41 sec) 
Heartbeat CPU 0 instructions: 10000001 cycles: 6253556 heartbeat IPC: 1.53573 cumulative IPC: 1.59909 (Simulation time: 0 hr 7 min 24 sec) 

Warmup complete CPU 0 instructions: 10000001 cycles: 6253556 (Simulation time: 0 hr 7 min 24 sec) 

Heartbeat CPU 0 instructions: 11000001 cycles: 7640929 heartbeat IPC: 0.720787 cumulative IPC: 0.720787 (Simulation time: 0 hr 8 min 9 sec) 
Heartbeat CPU 0 instructions: 12000000 cycles: 8894555 heartbeat IPC: 0.797685 cumulative IPC: 0.757289 (Simulation time: 0 hr 8 min 55 sec) 
Heartbeat CPU 0 instructions: 13000000 cycles: 10112779 heartbeat IPC: 0.820867 cumulative IPC: 0.777358 (Simulation time: 0 hr 9 min 44 sec) 
Heartbeat CPU 0 instructions: 14000000 cycles: 11365701 heartbeat IPC: 0.798134 cumulative IPC: 0.78245 (Simulation time: 0 hr 10 min 30 sec) 
Heartbeat CPU 0 instructions: 15000002 cycles: 12774683 heartbeat IPC: 0.709734 cumulative IPC: 0.766739 (Simulation time: 0 hr 11 min 19 sec) 
Heartbeat CPU 0 instructions: 16000000 cycles: 13990339 heartbeat IPC: 0.822599 cumulative IPC: 0.775516 (Simulation time: 0 hr 12 min 3 sec) 
Heartbeat CPU 0 instructions: 17000000 cycles: 15205849 heartbeat IPC: 0.8227 cumulative IPC: 0.781922 (Simulation time: 0 hr 12 min 46 sec) 
Heartbeat CPU 0 instructions: 18000001 cycles: 16627174 heartbeat IPC: 0.70357 cumulative IPC: 0.771187 (Simulation time: 0 hr 13 min 26 sec) 
Heartbeat CPU 0 instructions: 19000003 cycles: 17871850 heartbeat IPC: 0.803424 cumulative IPC: 0.774641 (Simulation time: 0 hr 14 min 10 sec) 
Heartbeat CPU 0 instructions: 20000000 cycles: 19106367 heartbeat IPC: 0.810031 cumulative IPC: 0.77804 (Simulation time: 0 hr 14 min 52 sec) 
Heartbeat CPU 0 instructions: 21000003 cycles: 20419770 heartbeat IPC: 0.761383 cumulative IPC: 0.776496 (Simulation time: 0 hr 15 min 34 sec) 
Heartbeat CPU 0 instructions: 22000003 cycles: 21738552 heartbeat IPC: 0.758275 cumulative IPC: 0.774944 (Simulation time: 0 hr 16 min 22 sec) 
Heartbeat CPU 0 instructions: 23000002 cycles: 22945209 heartbeat IPC: 0.828735 cumulative IPC: 0.778832 (Simulation time: 0 hr 17 min 8 sec) 
Heartbeat CPU 0 instructions: 24000000 cycles: 24147495 heartbeat IPC: 0.831747 cumulative IPC: 0.782388 (Simulation time: 0 hr 17 min 50 sec) 
Heartbeat CPU 0 instructions: 25000000 cycles: 25560662 heartbeat IPC: 0.70763 cumulative IPC: 0.776916 (Simulation time: 0 hr 18 min 32 sec) 
Heartbeat CPU 0 instructions: 26000000 cycles: 26780777 heartbeat IPC: 0.819595 cumulative IPC: 0.779453 (Simulation time: 0 hr 19 min 17 sec) 
Heartbeat CPU 0 instructions: 27000000 cycles: 27994813 heartbeat IPC: 0.823699 cumulative IPC: 0.781923 (Simulation time: 0 hr 20 min 3 sec) 
Heartbeat CPU 0 instructions: 28000000 cycles: 29387591 heartbeat IPC: 0.71799 cumulative IPC: 0.778074 (Simulation time: 0 hr 20 min 45 sec) 
Heartbeat CPU 0 instructions: 29000002 cycles: 30615019 heartbeat IPC: 0.814713 cumulative IPC: 0.77992 (Simulation time: 0 hr 21 min 30 sec) 
Heartbeat CPU 0 instructions: 30000002 cycles: 31825434 heartbeat IPC: 0.826163 cumulative IPC: 0.782109 (Simulation time: 0 hr 22 min 14 sec) 
Heartbeat CPU 0 instructions: 31000002 cycles: 33069795 heartbeat IPC: 0.803625 cumulative IPC: 0.783108 (Simulation time: 0 hr 22 min 59 sec) 
Heartbeat CPU 0 instructions: 32000000 cycles: 34441010 heartbeat IPC: 0.729279 cumulative IPC: 0.780489 (Simulation time: 0 hr 23 min 39 sec) 
Heartbeat CPU 0 instructions: 33000000 cycles: 35642883 heartbeat IPC: 0.832035 cumulative IPC: 0.782597 (Simulation time: 0 hr 24 min 25 sec) 
Heartbeat CPU 0 instructions: 34000000 cycles: 36849946 heartbeat IPC: 0.828457 cumulative IPC: 0.784406 (Simulation time: 0 hr 25 min 9 sec) 
Heartbeat CPU 0 instructions: 35000000 cycles: 38264572 heartbeat IPC: 0.706901 cumulative IPC: 0.780981 (Simulation time: 0 hr 25 min 49 sec) 
Heartbeat CPU 0 instructions: 36000000 cycles: 39493527 heartbeat IPC: 0.813699 cumulative IPC: 0.782191 (Simulation time: 0 hr 26 min 37 sec) 
Heartbeat CPU 0 instructions: 37000003 cycles: 40724143 heartbeat IPC: 0.812604 cumulative IPC: 0.783277 (Simulation time: 0 hr 27 min 21 sec) 
Heartbeat CPU 0 instructions: 38000003 cycles: 42062376 heartbeat IPC: 0.747254 cumulative IPC: 0.78193 (Simulation time: 0 hr 28 min 6 sec) 
Heartbeat CPU 0 instructions: 39000001 cycles: 43352541 heartbeat IPC: 0.775093 cumulative IPC: 0.781693 (Simulation time: 0 hr 28 min 55 sec) 
Heartbeat CPU 0 instructions: 40000000 cycles: 44576900 heartbeat IPC: 0.816753 cumulative IPC: 0.782813 (Simulation time: 0 hr 29 min 41 sec) 
Heartbeat CPU 0 instructions: 41000000 cycles: 45778602 heartbeat IPC: 0.832153 cumulative IPC: 0.784313 (Simulation time: 0 hr 30 min 27 sec) 
Heartbeat CPU 0 instructions: 42000000 cycles: 47194796 heartbeat IPC: 0.706118 cumulative IPC: 0.781608 (Simulation time: 0 hr 31 min 11 sec) 
Heartbeat CPU 0 instructions: 43000002 cycles: 48395440 heartbeat IPC: 0.832888 cumulative IPC: 0.783069 (Simulation time: 0 hr 31 min 53 sec) 
Heartbeat CPU 0 instructions: 44000000 cycles: 49606956 heartbeat IPC: 0.82541 cumulative IPC: 0.784252 (Simulation time: 0 hr 32 min 41 sec) 
Heartbeat CPU 0 instructions: 45000001 cycles: 51052350 heartbeat IPC: 0.691854 cumulative IPC: 0.781271 (Simulation time: 0 hr 33 min 28 sec) 
Heartbeat CPU 0 instructions: 46000001 cycles: 52906667 heartbeat IPC: 0.539282 cumulative IPC: 0.771653 (Simulation time: 0 hr 34 min 24 sec) 
Heartbeat CPU 0 instructions: 47000002 cycles: 54924033 heartbeat IPC: 0.495696 cumulative IPC: 0.760214 (Simulation time: 0 hr 35 min 22 sec) 
Heartbeat CPU 0 instructions: 48000000 cycles: 56935549 heartbeat IPC: 0.497136 cumulative IPC: 0.749773 (Simulation time: 0 hr 36 min 15 sec) 
Heartbeat CPU 0 instructions: 49000002 cycles: 58936413 heartbeat IPC: 0.499785 cumulative IPC: 0.740279 (Simulation time: 0 hr 37 min 9 sec) 
Heartbeat CPU 0 instructions: 50000002 cycles: 60914522 heartbeat IPC: 0.505533 cumulative IPC: 0.731784 (Simulation time: 0 hr 37 min 58 sec) 
Heartbeat CPU 0 instructions: 51000002 cycles: 62893424 heartbeat IPC: 0.505331 cumulative IPC: 0.723872 (Simulation time: 0 hr 38 min 47 sec) 
Heartbeat CPU 0 instructions: 52000000 cycles: 64834865 heartbeat IPC: 0.51508 cumulative IPC: 0.716952 (Simulation time: 0 hr 39 min 37 sec) 
Heartbeat CPU 0 instructions: 53000003 cycles: 66805072 heartbeat IPC: 0.507562 cumulative IPC: 0.710139 (Simulation time: 0 hr 40 min 28 sec) 
Heartbeat CPU 0 instructions: 54000003 cycles: 68789022 heartbeat IPC: 0.504045 cumulative IPC: 0.703601 (Simulation time: 0 hr 41 min 19 sec) 
Heartbeat CPU 0 instructions: 55000001 cycles: 70871471 heartbeat IPC: 0.480203 cumulative IPC: 0.696401 (Simulation time: 0 hr 42 min 8 sec) 
Heartbeat CPU 0 instructions: 56000000 cycles: 73213549 heartbeat IPC: 0.426971 cumulative IPC: 0.686977 (Simulation time: 0 hr 43 min 1 sec) 
Heartbeat CPU 0 instructions: 57000003 cycles: 75628197 heartbeat IPC: 0.41414 cumulative IPC: 0.677481 (Simulation time: 0 hr 43 min 53 sec) 
Heartbeat CPU 0 instructions: 58000001 cycles: 78106354 heartbeat IPC: 0.403525 cumulative IPC: 0.668032 (Simulation time: 0 hr 44 min 48 sec) 
Heartbeat CPU 0 instructions: 59000003 cycles: 80433795 heartbeat IPC: 0.429657 cumulative IPC: 0.660553 (Simulation time: 0 hr 45 min 45 sec) 
Heartbeat CPU 0 instructions: 60000000 cycles: 82744068 heartbeat IPC: 0.432848 cumulative IPC: 0.653676 (Simulation time: 0 hr 46 min 43 sec) 
Heartbeat CPU 0 instructions: 61000003 cycles: 85066996 heartbeat IPC: 0.430492 cumulative IPC: 0.647098 (Simulation time: 0 hr 47 min 43 sec) 
Heartbeat CPU 0 instructions: 62000002 cycles: 87354699 heartbeat IPC: 0.437119 cumulative IPC: 0.641175 (Simulation time: 0 hr 48 min 41 sec) 
Heartbeat CPU 0 instructions: 63000000 cycles: 89274832 heartbeat IPC: 0.520796 cumulative IPC: 0.638391 (Simulation time: 0 hr 49 min 30 sec) 
Heartbeat CPU 0 instructions: 64000000 cycles: 90592594 heartbeat IPC: 0.758862 cumulative IPC: 0.640273 (Simulation time: 0 hr 50 min 15 sec) 
Heartbeat CPU 0 instructions: 65000000 cycles: 91950251 heartbeat IPC: 0.736563 cumulative IPC: 0.641798 (Simulation time: 0 hr 51 min 5 sec) 
Heartbeat CPU 0 instructions: 66000002 cycles: 93301381 heartbeat IPC: 0.740123 cumulative IPC: 0.643325 (Simulation time: 0 hr 51 min 51 sec) 
Heartbeat CPU 0 instructions: 67000000 cycles: 94647074 heartbeat IPC: 0.74311 cumulative IPC: 0.644844 (Simulation time: 0 hr 52 min 40 sec) 
Heartbeat CPU 0 instructions: 68000000 cycles: 96038341 heartbeat IPC: 0.718769 cumulative IPC: 0.645989 (Simulation time: 0 hr 53 min 26 sec) 
Heartbeat CPU 0 instructions: 69000000 cycles: 97369448 heartbeat IPC: 0.751254 cumulative IPC: 0.647527 (Simulation time: 0 hr 54 min 11 sec) 
Heartbeat CPU 0 instructions: 70000000 cycles: 98729032 heartbeat IPC: 0.735519 cumulative IPC: 0.648821 (Simulation time: 0 hr 54 min 57 sec) 
Heartbeat CPU 0 instructions: 71000000 cycles: 100043797 heartbeat IPC: 0.760592 cumulative IPC: 0.650387 (Simulation time: 0 hr 55 min 32 sec) 
Heartbeat CPU 0 instructions: 72000000 cycles: 101378755 heartbeat IPC: 0.749087 cumulative IPC: 0.651773 (Simulation time: 0 hr 56 min 11 sec) 
Heartbeat CPU 0 instructions: 73000000 cycles: 102716662 heartbeat IPC: 0.747436 cumulative IPC: 0.653099 (Simulation time: 0 hr 56 min 50 sec) 
Heartbeat CPU 0 instructions: 74000000 cycles: 104030605 heartbeat IPC: 0.761068 cumulative IPC: 0.65455 (Simulation time: 0 hr 57 min 33 sec) 
Heartbeat CPU 0 instructions: 75000003 cycles: 105395312 heartbeat IPC: 0.73276 cumulative IPC: 0.655627 (Simulation time: 0 hr 58 min 11 sec) 
Heartbeat CPU 0 instructions: 76000000 cycles: 106715136 heartbeat IPC: 0.757675 cumulative IPC: 0.656968 (Simulation time: 0 hr 58 min 45 sec) 
Heartbeat CPU 0 instructions: 77000000 cycles: 108078764 heartbeat IPC: 0.733338 cumulative IPC: 0.65799 (Simulation time: 0 hr 59 min 29 sec) 
Heartbeat CPU 0 instructions: 78000001 cycles: 109419561 heartbeat IPC: 0.745826 cumulative IPC: 0.659132 (Simulation time: 1 hr 0 min 12 sec) 
Heartbeat CPU 0 instructions: 79000002 cycles: 110771628 heartbeat IPC: 0.739609 cumulative IPC: 0.660173 (Simulation time: 1 hr 0 min 47 sec) 
Heartbeat CPU 0 instructions: 80000000 cycles: 112140278 heartbeat IPC: 0.730646 cumulative IPC: 0.661084 (Simulation time: 1 hr 1 min 22 sec) 
Heartbeat CPU 0 instructions: 81000000 cycles: 113473090 heartbeat IPC: 0.750293 cumulative IPC: 0.662193 (Simulation time: 1 hr 1 min 58 sec) 
Heartbeat CPU 0 instructions: 82000003 cycles: 114851844 heartbeat IPC: 0.725295 cumulative IPC: 0.662994 (Simulation time: 1 hr 2 min 32 sec) 
Heartbeat CPU 0 instructions: 83000001 cycles: 116198633 heartbeat IPC: 0.742505 cumulative IPC: 0.663968 (Simulation time: 1 hr 3 min 7 sec) 
Heartbeat CPU 0 instructions: 84000000 cycles: 117547556 heartbeat IPC: 0.741331 cumulative IPC: 0.664906 (Simulation time: 1 hr 3 min 44 sec) 
Heartbeat CPU 0 instructions: 85000001 cycles: 118872020 heartbeat IPC: 0.755023 cumulative IPC: 0.665965 (Simulation time: 1 hr 4 min 15 sec) 
Heartbeat CPU 0 instructions: 86000003 cycles: 120205029 heartbeat IPC: 0.750184 cumulative IPC: 0.666951 (Simulation time: 1 hr 4 min 45 sec) 
Heartbeat CPU 0 instructions: 87000001 cycles: 121550546 heartbeat IPC: 0.743207 cumulative IPC: 0.66784 (Simulation time: 1 hr 5 min 14 sec) 
Heartbeat CPU 0 instructions: 88000000 cycles: 122896569 heartbeat IPC: 0.742929 cumulative IPC: 0.668707 (Simulation time: 1 hr 5 min 45 sec) 
Heartbeat CPU 0 instructions: 89000001 cycles: 124253734 heartbeat IPC: 0.736831 cumulative IPC: 0.669491 (Simulation time: 1 hr 6 min 13 sec) 
Heartbeat CPU 0 instructions: 90000002 cycles: 125597423 heartbeat IPC: 0.744221 cumulative IPC: 0.670332 (Simulation time: 1 hr 6 min 42 sec) 
Heartbeat CPU 0 instructions: 91000000 cycles: 126946826 heartbeat IPC: 0.741067 cumulative IPC: 0.671123 (Simulation time: 1 hr 7 min 13 sec) 
Heartbeat CPU 0 instructions: 92000000 cycles: 128279760 heartbeat IPC: 0.750225 cumulative IPC: 0.671987 (Simulation time: 1 hr 7 min 46 sec) 
Heartbeat CPU 0 instructions: 93000002 cycles: 129638548 heartbeat IPC: 0.735951 cumulative IPC: 0.672691 (Simulation time: 1 hr 8 min 13 sec) 
Heartbeat CPU 0 instructions: 94000000 cycles: 130960305 heartbeat IPC: 0.756567 cumulative IPC: 0.67358 (Simulation time: 1 hr 8 min 39 sec) 
Heartbeat CPU 0 instructions: 95000003 cycles: 132289139 heartbeat IPC: 0.752542 cumulative IPC: 0.674413 (Simulation time: 1 hr 9 min 8 sec) 
Heartbeat CPU 0 instructions: 96000000 cycles: 133644081 heartbeat IPC: 0.738037 cumulative IPC: 0.675089 (Simulation time: 1 hr 9 min 39 sec) 
Heartbeat CPU 0 instructions: 97000001 cycles: 134967270 heartbeat IPC: 0.755751 cumulative IPC: 0.675919 (Simulation time: 1 hr 10 min 5 sec) 
Heartbeat CPU 0 instructions: 98000002 cycles: 136325623 heartbeat IPC: 0.736186 cumulative IPC: 0.676548 (Simulation time: 1 hr 10 min 34 sec) 
Heartbeat CPU 0 instructions: 99000000 cycles: 137659216 heartbeat IPC: 0.749852 cumulative IPC: 0.677292 (Simulation time: 1 hr 10 min 58 sec) 
Heartbeat CPU 0 instructions: 100000000 cycles: 139035316 heartbeat IPC: 0.726691 cumulative IPC: 0.677804 (Simulation time: 1 hr 11 min 22 sec) 
Heartbeat CPU 0 instructions: 101000000 cycles: 140382913 heartbeat IPC: 0.742062 cumulative IPC: 0.67845 (Simulation time: 1 hr 11 min 44 sec) 
Heartbeat CPU 0 instructions: 102000001 cycles: 141720947 heartbeat IPC: 0.747366 cumulative IPC: 0.67913 (Simulation time: 1 hr 12 min 4 sec) 
Heartbeat CPU 0 instructions: 103000002 cycles: 143086364 heartbeat IPC: 0.732378 cumulative IPC: 0.679662 (Simulation time: 1 hr 12 min 24 sec) 
Heartbeat CPU 0 instructions: 104000000 cycles: 144409491 heartbeat IPC: 0.755784 cumulative IPC: 0.680391 (Simulation time: 1 hr 12 min 43 sec) 
Heartbeat CPU 0 instructions: 105000001 cycles: 145785819 heartbeat IPC: 0.726572 cumulative IPC: 0.680846 (Simulation time: 1 hr 13 min 2 sec) 
Heartbeat CPU 0 instructions: 106000002 cycles: 147124741 heartbeat IPC: 0.74687 cumulative IPC: 0.681474 (Simulation time: 1 hr 13 min 22 sec) 
Heartbeat CPU 0 instructions: 107000000 cycles: 148477665 heartbeat IPC: 0.739138 cumulative IPC: 0.682022 (Simulation time: 1 hr 13 min 41 sec) 
Heartbeat CPU 0 instructions: 108000000 cycles: 149813372 heartbeat IPC: 0.748667 cumulative IPC: 0.682642 (Simulation time: 1 hr 13 min 58 sec) 
Heartbeat CPU 0 instructions: 109000003 cycles: 151147145 heartbeat IPC: 0.749755 cumulative IPC: 0.68326 (Simulation time: 1 hr 14 min 15 sec) 
Heartbeat CPU 0 instructions: 110000001 cycles: 152513520 heartbeat IPC: 0.731862 cumulative IPC: 0.683714 (Simulation time: 1 hr 14 min 30 sec) 
Finished CPU 0 instructions: 100000000 cycles: 146259964 cummulative IPC: 0.683714 (Simulation time: 1 hr 14 min 30 sec) 

ChampSim completed all CPUs

Region of Interest Statistics

CPU 0 cummulative IPC: 0.683714 instructions: 100000000 cycles: 146259964
LLC TOTAL     ACCESS:    3758289  HIT:     837372  MISS:    2920917
LLC LOAD      ACCESS:     402500  HIT:      79330  MISS:     323170
LLC RFO       ACCESS:     463718  HIT:     173943  MISS:     289775
LLC PREFETCH  ACCESS:    2142929  HIT:     206092  MISS:    1936837
LLC WRITEBACK ACCESS:     749142  HIT:     378007  MISS:     371135
