
*** ChampSim Multicore Out-of-Order Simulator ***

Warmup Instructions: 10000000
Simulation Instructions: 100000000
Configuration: 2
Number of CPUs: 1
LLC sets: 2048
LLC ways: 16
Off-chip DRAM Channels: 1 Width: 64-bit Data Rate: 1600 MT/s

CPU 0 runs /datasets/cs240c-wi22-a00-public/data/Assignment2-gz/omnetpp_340B.trace.gz
CPU 0 L1D next line prefetcher
CPU 0 L2C IP-based stride prefetcher
Heartbeat CPU 0 instructions: 1000001 cycles: 576928 heartbeat IPC: 1.73332 cumulative IPC: 1.73332 (Simulation time: 0 hr 0 min 45 sec) 
Heartbeat CPU 0 instructions: 2000000 cycles: 1160856 heartbeat IPC: 1.71254 cumulative IPC: 1.72287 (Simulation time: 0 hr 1 min 30 sec) 
Heartbeat CPU 0 instructions: 3000001 cycles: 1758114 heartbeat IPC: 1.67432 cumulative IPC: 1.70637 (Simulation time: 0 hr 2 min 9 sec) 
Heartbeat CPU 0 instructions: 4000000 cycles: 2379108 heartbeat IPC: 1.61032 cumulative IPC: 1.6813 (Simulation time: 0 hr 2 min 51 sec) 
Heartbeat CPU 0 instructions: 5000002 cycles: 2954458 heartbeat IPC: 1.73808 cumulative IPC: 1.69236 (Simulation time: 0 hr 3 min 34 sec) 
Heartbeat CPU 0 instructions: 6000003 cycles: 3555895 heartbeat IPC: 1.66269 cumulative IPC: 1.68734 (Simulation time: 0 hr 4 min 13 sec) 
Heartbeat CPU 0 instructions: 7000003 cycles: 4205361 heartbeat IPC: 1.53973 cumulative IPC: 1.66454 (Simulation time: 0 hr 5 min 1 sec) 
Heartbeat CPU 0 instructions: 8000000 cycles: 4800033 heartbeat IPC: 1.68159 cumulative IPC: 1.66666 (Simulation time: 0 hr 5 min 44 sec) 
Heartbeat CPU 0 instructions: 9000002 cycles: 5433214 heartbeat IPC: 1.57933 cumulative IPC: 1.65648 (Simulation time: 0 hr 6 min 30 sec) 
Heartbeat CPU 0 instructions: 10000002 cycles: 6027833 heartbeat IPC: 1.68175 cumulative IPC: 1.65897 (Simulation time: 0 hr 7 min 13 sec) 

Warmup complete CPU 0 instructions: 10000002 cycles: 6027833 (Simulation time: 0 hr 7 min 13 sec) 

Heartbeat CPU 0 instructions: 11000000 cycles: 9670462 heartbeat IPC: 0.274526 cumulative IPC: 0.274526 (Simulation time: 0 hr 8 min 3 sec) 
Heartbeat CPU 0 instructions: 12000000 cycles: 13226594 heartbeat IPC: 0.281204 cumulative IPC: 0.277825 (Simulation time: 0 hr 9 min 0 sec) 
Heartbeat CPU 0 instructions: 13000000 cycles: 17082670 heartbeat IPC: 0.259331 cumulative IPC: 0.271374 (Simulation time: 0 hr 9 min 58 sec) 
Heartbeat CPU 0 instructions: 14000001 cycles: 20914748 heartbeat IPC: 0.260955 cumulative IPC: 0.268692 (Simulation time: 0 hr 10 min 48 sec) 
Heartbeat CPU 0 instructions: 15000003 cycles: 24862227 heartbeat IPC: 0.253327 cumulative IPC: 0.265472 (Simulation time: 0 hr 11 min 48 sec) 
Heartbeat CPU 0 instructions: 16000000 cycles: 29039435 heartbeat IPC: 0.239394 cumulative IPC: 0.260738 (Simulation time: 0 hr 12 min 44 sec) 
Heartbeat CPU 0 instructions: 17000000 cycles: 32788872 heartbeat IPC: 0.266707 cumulative IPC: 0.261574 (Simulation time: 0 hr 13 min 39 sec) 
Heartbeat CPU 0 instructions: 18000000 cycles: 36717642 heartbeat IPC: 0.254533 cumulative IPC: 0.260673 (Simulation time: 0 hr 14 min 38 sec) 
Heartbeat CPU 0 instructions: 19000000 cycles: 41013769 heartbeat IPC: 0.232768 cumulative IPC: 0.257246 (Simulation time: 0 hr 15 min 34 sec) 
Heartbeat CPU 0 instructions: 20000000 cycles: 45079646 heartbeat IPC: 0.245949 cumulative IPC: 0.25607 (Simulation time: 0 hr 16 min 31 sec) 
Heartbeat CPU 0 instructions: 21000000 cycles: 48570354 heartbeat IPC: 0.286475 cumulative IPC: 0.258565 (Simulation time: 0 hr 17 min 23 sec) 
Heartbeat CPU 0 instructions: 22000001 cycles: 52399685 heartbeat IPC: 0.261142 cumulative IPC: 0.258778 (Simulation time: 0 hr 18 min 23 sec) 
Heartbeat CPU 0 instructions: 23000001 cycles: 56175471 heartbeat IPC: 0.264846 cumulative IPC: 0.259235 (Simulation time: 0 hr 19 min 21 sec) 
Heartbeat CPU 0 instructions: 24000000 cycles: 59973500 heartbeat IPC: 0.263294 cumulative IPC: 0.25952 (Simulation time: 0 hr 20 min 15 sec) 
Heartbeat CPU 0 instructions: 25000000 cycles: 63833934 heartbeat IPC: 0.259038 cumulative IPC: 0.259488 (Simulation time: 0 hr 21 min 13 sec) 
Heartbeat CPU 0 instructions: 26000001 cycles: 67777701 heartbeat IPC: 0.253565 cumulative IPC: 0.25911 (Simulation time: 0 hr 22 min 11 sec) 
Heartbeat CPU 0 instructions: 27000000 cycles: 71844391 heartbeat IPC: 0.2459 cumulative IPC: 0.258294 (Simulation time: 0 hr 23 min 0 sec) 
Heartbeat CPU 0 instructions: 28000000 cycles: 75920802 heartbeat IPC: 0.245314 cumulative IPC: 0.257537 (Simulation time: 0 hr 24 min 4 sec) 
Heartbeat CPU 0 instructions: 29000003 cycles: 79966730 heartbeat IPC: 0.247163 cumulative IPC: 0.256969 (Simulation time: 0 hr 25 min 1 sec) 
Heartbeat CPU 0 instructions: 30000000 cycles: 83611137 heartbeat IPC: 0.274392 cumulative IPC: 0.257787 (Simulation time: 0 hr 25 min 51 sec) 
Heartbeat CPU 0 instructions: 31000000 cycles: 87470740 heartbeat IPC: 0.259094 cumulative IPC: 0.257849 (Simulation time: 0 hr 26 min 53 sec) 
Heartbeat CPU 0 instructions: 32000000 cycles: 91161468 heartbeat IPC: 0.270949 cumulative IPC: 0.258417 (Simulation time: 0 hr 27 min 46 sec) 
Heartbeat CPU 0 instructions: 33000003 cycles: 94879573 heartbeat IPC: 0.268955 cumulative IPC: 0.258858 (Simulation time: 0 hr 28 min 40 sec) 
Heartbeat CPU 0 instructions: 34000001 cycles: 99077164 heartbeat IPC: 0.238231 cumulative IPC: 0.257928 (Simulation time: 0 hr 29 min 39 sec) 
Heartbeat CPU 0 instructions: 35000002 cycles: 102655506 heartbeat IPC: 0.279459 cumulative IPC: 0.258725 (Simulation time: 0 hr 30 min 30 sec) 
Heartbeat CPU 0 instructions: 36000000 cycles: 106914934 heartbeat IPC: 0.234773 cumulative IPC: 0.257714 (Simulation time: 0 hr 31 min 25 sec) 
Heartbeat CPU 0 instructions: 37000000 cycles: 111190044 heartbeat IPC: 0.233912 cumulative IPC: 0.256746 (Simulation time: 0 hr 32 min 22 sec) 
Heartbeat CPU 0 instructions: 38000000 cycles: 114991734 heartbeat IPC: 0.263041 cumulative IPC: 0.256966 (Simulation time: 0 hr 33 min 21 sec) 
Heartbeat CPU 0 instructions: 39000001 cycles: 119192541 heartbeat IPC: 0.23805 cumulative IPC: 0.256264 (Simulation time: 0 hr 34 min 20 sec) 
Heartbeat CPU 0 instructions: 40000000 cycles: 122707925 heartbeat IPC: 0.284464 cumulative IPC: 0.257113 (Simulation time: 0 hr 35 min 21 sec) 
Heartbeat CPU 0 instructions: 41000000 cycles: 126327784 heartbeat IPC: 0.276254 cumulative IPC: 0.257689 (Simulation time: 0 hr 36 min 22 sec) 
Heartbeat CPU 0 instructions: 42000001 cycles: 130419474 heartbeat IPC: 0.244398 cumulative IPC: 0.257252 (Simulation time: 0 hr 37 min 26 sec) 
Heartbeat CPU 0 instructions: 43000001 cycles: 134455602 heartbeat IPC: 0.247762 cumulative IPC: 0.256954 (Simulation time: 0 hr 38 min 24 sec) 
Heartbeat CPU 0 instructions: 44000000 cycles: 138148218 heartbeat IPC: 0.27081 cumulative IPC: 0.257341 (Simulation time: 0 hr 39 min 19 sec) 
Heartbeat CPU 0 instructions: 45000003 cycles: 142074012 heartbeat IPC: 0.254726 cumulative IPC: 0.257266 (Simulation time: 0 hr 40 min 9 sec) 
Heartbeat CPU 0 instructions: 46000003 cycles: 146109966 heartbeat IPC: 0.247773 cumulative IPC: 0.256992 (Simulation time: 0 hr 41 min 6 sec) 
Heartbeat CPU 0 instructions: 47000000 cycles: 149254605 heartbeat IPC: 0.318001 cumulative IPC: 0.258332 (Simulation time: 0 hr 42 min 1 sec) 
Heartbeat CPU 0 instructions: 48000000 cycles: 153236287 heartbeat IPC: 0.25115 cumulative IPC: 0.258137 (Simulation time: 0 hr 42 min 51 sec) 
Heartbeat CPU 0 instructions: 49000000 cycles: 156260750 heartbeat IPC: 0.330637 cumulative IPC: 0.259597 (Simulation time: 0 hr 43 min 40 sec) 
Heartbeat CPU 0 instructions: 50000001 cycles: 160362475 heartbeat IPC: 0.2438 cumulative IPC: 0.259177 (Simulation time: 0 hr 44 min 31 sec) 
Heartbeat CPU 0 instructions: 51000003 cycles: 164120811 heartbeat IPC: 0.266076 cumulative IPC: 0.259341 (Simulation time: 0 hr 45 min 30 sec) 
Heartbeat CPU 0 instructions: 52000000 cycles: 168143201 heartbeat IPC: 0.248608 cumulative IPC: 0.259075 (Simulation time: 0 hr 46 min 30 sec) 
Heartbeat CPU 0 instructions: 53000000 cycles: 172695183 heartbeat IPC: 0.219685 cumulative IPC: 0.257999 (Simulation time: 0 hr 47 min 24 sec) 
Heartbeat CPU 0 instructions: 54000002 cycles: 176824088 heartbeat IPC: 0.242195 cumulative IPC: 0.257617 (Simulation time: 0 hr 48 min 22 sec) 
Heartbeat CPU 0 instructions: 55000001 cycles: 180745995 heartbeat IPC: 0.254978 cumulative IPC: 0.257558 (Simulation time: 0 hr 49 min 21 sec) 
Heartbeat CPU 0 instructions: 56000000 cycles: 185092103 heartbeat IPC: 0.230091 cumulative IPC: 0.256891 (Simulation time: 0 hr 50 min 20 sec) 
Heartbeat CPU 0 instructions: 57000001 cycles: 189199905 heartbeat IPC: 0.243439 cumulative IPC: 0.256589 (Simulation time: 0 hr 51 min 15 sec) 
Heartbeat CPU 0 instructions: 58000000 cycles: 192558457 heartbeat IPC: 0.297747 cumulative IPC: 0.25733 (Simulation time: 0 hr 52 min 10 sec) 
Heartbeat CPU 0 instructions: 59000003 cycles: 196531932 heartbeat IPC: 0.25167 cumulative IPC: 0.257212 (Simulation time: 0 hr 53 min 7 sec) 
Heartbeat CPU 0 instructions: 60000000 cycles: 200920379 heartbeat IPC: 0.22787 cumulative IPC: 0.256552 (Simulation time: 0 hr 54 min 6 sec) 
Heartbeat CPU 0 instructions: 61000001 cycles: 205278418 heartbeat IPC: 0.229461 cumulative IPC: 0.255959 (Simulation time: 0 hr 55 min 0 sec) 
Heartbeat CPU 0 instructions: 62000000 cycles: 209784017 heartbeat IPC: 0.221946 cumulative IPC: 0.255207 (Simulation time: 0 hr 55 min 51 sec) 
Heartbeat CPU 0 instructions: 63000001 cycles: 213586239 heartbeat IPC: 0.263004 cumulative IPC: 0.25535 (Simulation time: 0 hr 56 min 41 sec) 
Heartbeat CPU 0 instructions: 64000000 cycles: 217477323 heartbeat IPC: 0.256998 cumulative IPC: 0.25538 (Simulation time: 0 hr 57 min 25 sec) 
Heartbeat CPU 0 instructions: 65000001 cycles: 220933413 heartbeat IPC: 0.289345 cumulative IPC: 0.255926 (Simulation time: 0 hr 58 min 12 sec) 
Heartbeat CPU 0 instructions: 66000002 cycles: 224810716 heartbeat IPC: 0.257912 cumulative IPC: 0.255962 (Simulation time: 0 hr 58 min 57 sec) 
Heartbeat CPU 0 instructions: 67000002 cycles: 228639426 heartbeat IPC: 0.261185 cumulative IPC: 0.256051 (Simulation time: 0 hr 59 min 45 sec) 
Heartbeat CPU 0 instructions: 68000000 cycles: 232475076 heartbeat IPC: 0.260711 cumulative IPC: 0.25613 (Simulation time: 1 hr 0 min 36 sec) 
Heartbeat CPU 0 instructions: 69000000 cycles: 236404712 heartbeat IPC: 0.254476 cumulative IPC: 0.256102 (Simulation time: 1 hr 1 min 21 sec) 
Heartbeat CPU 0 instructions: 70000001 cycles: 239846279 heartbeat IPC: 0.290566 cumulative IPC: 0.256609 (Simulation time: 1 hr 2 min 5 sec) 
Heartbeat CPU 0 instructions: 71000003 cycles: 243738640 heartbeat IPC: 0.256914 cumulative IPC: 0.256614 (Simulation time: 1 hr 2 min 48 sec) 
Heartbeat CPU 0 instructions: 72000000 cycles: 248198781 heartbeat IPC: 0.224207 cumulative IPC: 0.256017 (Simulation time: 1 hr 3 min 31 sec) 
Heartbeat CPU 0 instructions: 73000002 cycles: 252210702 heartbeat IPC: 0.249258 cumulative IPC: 0.255907 (Simulation time: 1 hr 4 min 9 sec) 
Heartbeat CPU 0 instructions: 74000000 cycles: 256031937 heartbeat IPC: 0.261695 cumulative IPC: 0.255996 (Simulation time: 1 hr 4 min 50 sec) 
Heartbeat CPU 0 instructions: 75000003 cycles: 260084250 heartbeat IPC: 0.246773 cumulative IPC: 0.255849 (Simulation time: 1 hr 5 min 26 sec) 
Heartbeat CPU 0 instructions: 76000000 cycles: 263900405 heartbeat IPC: 0.262043 cumulative IPC: 0.25594 (Simulation time: 1 hr 6 min 3 sec) 
Heartbeat CPU 0 instructions: 77000002 cycles: 268615851 heartbeat IPC: 0.212069 cumulative IPC: 0.255153 (Simulation time: 1 hr 6 min 42 sec) 
Heartbeat CPU 0 instructions: 78000003 cycles: 272541114 heartbeat IPC: 0.25476 cumulative IPC: 0.255147 (Simulation time: 1 hr 7 min 17 sec) 
Heartbeat CPU 0 instructions: 79000002 cycles: 276455623 heartbeat IPC: 0.25546 cumulative IPC: 0.255151 (Simulation time: 1 hr 7 min 49 sec) 
Heartbeat CPU 0 instructions: 80000000 cycles: 280317846 heartbeat IPC: 0.258918 cumulative IPC: 0.255204 (Simulation time: 1 hr 8 min 21 sec) 
Heartbeat CPU 0 instructions: 81000002 cycles: 284511083 heartbeat IPC: 0.23848 cumulative IPC: 0.254952 (Simulation time: 1 hr 8 min 56 sec) 
Heartbeat CPU 0 instructions: 82000000 cycles: 288811651 heartbeat IPC: 0.232527 cumulative IPC: 0.254611 (Simulation time: 1 hr 9 min 30 sec) 
Heartbeat CPU 0 instructions: 83000002 cycles: 292573025 heartbeat IPC: 0.265861 cumulative IPC: 0.254759 (Simulation time: 1 hr 10 min 5 sec) 
Heartbeat CPU 0 instructions: 84000000 cycles: 296561008 heartbeat IPC: 0.250753 cumulative IPC: 0.254704 (Simulation time: 1 hr 10 min 34 sec) 
Heartbeat CPU 0 instructions: 85000000 cycles: 300285149 heartbeat IPC: 0.268518 cumulative IPC: 0.254879 (Simulation time: 1 hr 11 min 2 sec) 
Heartbeat CPU 0 instructions: 86000000 cycles: 304192943 heartbeat IPC: 0.255899 cumulative IPC: 0.254892 (Simulation time: 1 hr 11 min 29 sec) 
Heartbeat CPU 0 instructions: 87000001 cycles: 307987044 heartbeat IPC: 0.263567 cumulative IPC: 0.255001 (Simulation time: 1 hr 11 min 57 sec) 
Heartbeat CPU 0 instructions: 88000000 cycles: 311811932 heartbeat IPC: 0.261445 cumulative IPC: 0.255082 (Simulation time: 1 hr 12 min 20 sec) 
Heartbeat CPU 0 instructions: 89000003 cycles: 315287252 heartbeat IPC: 0.287744 cumulative IPC: 0.255449 (Simulation time: 1 hr 12 min 43 sec) 
Heartbeat CPU 0 instructions: 90000000 cycles: 319105721 heartbeat IPC: 0.261884 cumulative IPC: 0.255527 (Simulation time: 1 hr 13 min 3 sec) 
Heartbeat CPU 0 instructions: 91000001 cycles: 322597420 heartbeat IPC: 0.286394 cumulative IPC: 0.255868 (Simulation time: 1 hr 13 min 25 sec) 
Heartbeat CPU 0 instructions: 92000000 cycles: 326632459 heartbeat IPC: 0.247829 cumulative IPC: 0.255767 (Simulation time: 1 hr 13 min 45 sec) 
Heartbeat CPU 0 instructions: 93000001 cycles: 331124464 heartbeat IPC: 0.222618 cumulative IPC: 0.255309 (Simulation time: 1 hr 14 min 8 sec) 
Heartbeat CPU 0 instructions: 94000001 cycles: 334942712 heartbeat IPC: 0.2619 cumulative IPC: 0.255385 (Simulation time: 1 hr 14 min 27 sec) 
Heartbeat CPU 0 instructions: 95000000 cycles: 338951290 heartbeat IPC: 0.249465 cumulative IPC: 0.255314 (Simulation time: 1 hr 14 min 47 sec) 
Heartbeat CPU 0 instructions: 96000000 cycles: 343417904 heartbeat IPC: 0.223883 cumulative IPC: 0.254898 (Simulation time: 1 hr 15 min 3 sec) 
Heartbeat CPU 0 instructions: 97000000 cycles: 347079505 heartbeat IPC: 0.273105 cumulative IPC: 0.255093 (Simulation time: 1 hr 15 min 18 sec) 
Heartbeat CPU 0 instructions: 98000000 cycles: 351316799 heartbeat IPC: 0.236 cumulative IPC: 0.254859 (Simulation time: 1 hr 15 min 32 sec) 
Heartbeat CPU 0 instructions: 99000000 cycles: 355781214 heartbeat IPC: 0.223994 cumulative IPC: 0.254465 (Simulation time: 1 hr 15 min 42 sec) 
Heartbeat CPU 0 instructions: 100000000 cycles: 359909099 heartbeat IPC: 0.242255 cumulative IPC: 0.254323 (Simulation time: 1 hr 15 min 49 sec) 
Heartbeat CPU 0 instructions: 101000003 cycles: 363890743 heartbeat IPC: 0.251153 cumulative IPC: 0.254287 (Simulation time: 1 hr 15 min 57 sec) 
Heartbeat CPU 0 instructions: 102000003 cycles: 367984270 heartbeat IPC: 0.244288 cumulative IPC: 0.254174 (Simulation time: 1 hr 16 min 5 sec) 
Heartbeat CPU 0 instructions: 103000000 cycles: 371867589 heartbeat IPC: 0.257511 cumulative IPC: 0.25421 (Simulation time: 1 hr 16 min 12 sec) 
Heartbeat CPU 0 instructions: 104000000 cycles: 375659053 heartbeat IPC: 0.26375 cumulative IPC: 0.254308 (Simulation time: 1 hr 16 min 19 sec) 
Heartbeat CPU 0 instructions: 105000003 cycles: 379599484 heartbeat IPC: 0.25378 cumulative IPC: 0.254302 (Simulation time: 1 hr 16 min 25 sec) 
Heartbeat CPU 0 instructions: 106000001 cycles: 383139804 heartbeat IPC: 0.28246 cumulative IPC: 0.254566 (Simulation time: 1 hr 16 min 32 sec) 
Heartbeat CPU 0 instructions: 107000000 cycles: 387317318 heartbeat IPC: 0.239377 cumulative IPC: 0.2544 (Simulation time: 1 hr 16 min 39 sec) 
Heartbeat CPU 0 instructions: 108000000 cycles: 391357113 heartbeat IPC: 0.247537 cumulative IPC: 0.254328 (Simulation time: 1 hr 16 min 46 sec) 
Heartbeat CPU 0 instructions: 109000000 cycles: 395822257 heartbeat IPC: 0.223957 cumulative IPC: 0.25398 (Simulation time: 1 hr 16 min 53 sec) 
Heartbeat CPU 0 instructions: 110000000 cycles: 399502510 heartbeat IPC: 0.27172 cumulative IPC: 0.254146 (Simulation time: 1 hr 16 min 59 sec) 
Finished CPU 0 instructions: 100000000 cycles: 393474681 cummulative IPC: 0.254146 (Simulation time: 1 hr 16 min 59 sec) 

ChampSim completed all CPUs

Region of Interest Statistics

CPU 0 cummulative IPC: 0.254146 instructions: 100000000 cycles: 393474681
LLC TOTAL     ACCESS:    4309256  HIT:    1382284  MISS:    2926972
LLC LOAD      ACCESS:    1523788  HIT:     441780  MISS:    1082008
LLC RFO       ACCESS:     249880  HIT:      81694  MISS:     168186
LLC PREFETCH  ACCESS:    1529571  HIT:     147462  MISS:    1382109
LLC WRITEBACK ACCESS:    1006017  HIT:     711348  MISS:     294669
