
*** ChampSim Multicore Out-of-Order Simulator ***

Warmup Instructions: 10000000
Simulation Instructions: 100000000
Configuration: 2
Number of CPUs: 1
LLC sets: 2048
LLC ways: 16
Off-chip DRAM Channels: 1 Width: 64-bit Data Rate: 1600 MT/s

CPU 0 runs /datasets/cs240c-wi22-a00-public/data/Assignment2-gz/soplex_66B.trace.gz
CPU 0 L1D next line prefetcher
CPU 0 L2C IP-based stride prefetcher
Heartbeat CPU 0 instructions: 1000003 cycles: 415045 heartbeat IPC: 2.40938 cumulative IPC: 2.40938 (Simulation time: 0 hr 0 min 34 sec) 
Heartbeat CPU 0 instructions: 2000003 cycles: 837178 heartbeat IPC: 2.36892 cumulative IPC: 2.38898 (Simulation time: 0 hr 1 min 10 sec) 
Heartbeat CPU 0 instructions: 3000003 cycles: 1242143 heartbeat IPC: 2.46935 cumulative IPC: 2.41518 (Simulation time: 0 hr 1 min 44 sec) 
Heartbeat CPU 0 instructions: 4000000 cycles: 1626256 heartbeat IPC: 2.60339 cumulative IPC: 2.45964 (Simulation time: 0 hr 2 min 17 sec) 
Heartbeat CPU 0 instructions: 5000000 cycles: 2040643 heartbeat IPC: 2.4132 cumulative IPC: 2.45021 (Simulation time: 0 hr 2 min 53 sec) 
Heartbeat CPU 0 instructions: 6000000 cycles: 2514265 heartbeat IPC: 2.11139 cumulative IPC: 2.38638 (Simulation time: 0 hr 3 min 29 sec) 
Heartbeat CPU 0 instructions: 7000002 cycles: 2886808 heartbeat IPC: 2.68426 cumulative IPC: 2.42482 (Simulation time: 0 hr 4 min 9 sec) 
Heartbeat CPU 0 instructions: 8000000 cycles: 3312530 heartbeat IPC: 2.34895 cumulative IPC: 2.41507 (Simulation time: 0 hr 4 min 46 sec) 
Heartbeat CPU 0 instructions: 9000001 cycles: 3751116 heartbeat IPC: 2.28006 cumulative IPC: 2.39929 (Simulation time: 0 hr 5 min 23 sec) 
Heartbeat CPU 0 instructions: 10000002 cycles: 4163251 heartbeat IPC: 2.42639 cumulative IPC: 2.40197 (Simulation time: 0 hr 6 min 2 sec) 

Warmup complete CPU 0 instructions: 10000002 cycles: 4163251 (Simulation time: 0 hr 6 min 2 sec) 

Heartbeat CPU 0 instructions: 11000001 cycles: 7319936 heartbeat IPC: 0.316788 cumulative IPC: 0.316788 (Simulation time: 0 hr 6 min 49 sec) 
Heartbeat CPU 0 instructions: 12000000 cycles: 8671506 heartbeat IPC: 0.73988 cumulative IPC: 0.44363 (Simulation time: 0 hr 7 min 20 sec) 
Heartbeat CPU 0 instructions: 13000001 cycles: 11250352 heartbeat IPC: 0.387771 cumulative IPC: 0.423304 (Simulation time: 0 hr 8 min 2 sec) 
Heartbeat CPU 0 instructions: 14000002 cycles: 13679131 heartbeat IPC: 0.41173 cumulative IPC: 0.42035 (Simulation time: 0 hr 8 min 46 sec) 
Heartbeat CPU 0 instructions: 15000002 cycles: 16171587 heartbeat IPC: 0.401211 cumulative IPC: 0.416377 (Simulation time: 0 hr 9 min 21 sec) 
Heartbeat CPU 0 instructions: 16000000 cycles: 18957315 heartbeat IPC: 0.358972 cumulative IPC: 0.405568 (Simulation time: 0 hr 10 min 1 sec) 
Heartbeat CPU 0 instructions: 17000001 cycles: 21097695 heartbeat IPC: 0.467207 cumulative IPC: 0.413359 (Simulation time: 0 hr 10 min 47 sec) 
Heartbeat CPU 0 instructions: 18000000 cycles: 23059879 heartbeat IPC: 0.509636 cumulative IPC: 0.423356 (Simulation time: 0 hr 11 min 27 sec) 
Heartbeat CPU 0 instructions: 19000002 cycles: 26466400 heartbeat IPC: 0.293555 cumulative IPC: 0.40353 (Simulation time: 0 hr 12 min 17 sec) 
Heartbeat CPU 0 instructions: 20000000 cycles: 27804812 heartbeat IPC: 0.747153 cumulative IPC: 0.422984 (Simulation time: 0 hr 12 min 43 sec) 
Heartbeat CPU 0 instructions: 21000000 cycles: 29983495 heartbeat IPC: 0.458993 cumulative IPC: 0.426022 (Simulation time: 0 hr 13 min 21 sec) 
Heartbeat CPU 0 instructions: 22000000 cycles: 32565081 heartbeat IPC: 0.387359 cumulative IPC: 0.422508 (Simulation time: 0 hr 14 min 3 sec) 
Heartbeat CPU 0 instructions: 23000000 cycles: 34985358 heartbeat IPC: 0.413176 cumulative IPC: 0.421775 (Simulation time: 0 hr 14 min 40 sec) 
Heartbeat CPU 0 instructions: 24000000 cycles: 37454192 heartbeat IPC: 0.40505 cumulative IPC: 0.420535 (Simulation time: 0 hr 15 min 15 sec) 
Heartbeat CPU 0 instructions: 25000003 cycles: 39745607 heartbeat IPC: 0.436413 cumulative IPC: 0.421557 (Simulation time: 0 hr 16 min 6 sec) 
Heartbeat CPU 0 instructions: 26000001 cycles: 41881042 heartbeat IPC: 0.468288 cumulative IPC: 0.424203 (Simulation time: 0 hr 16 min 54 sec) 
Heartbeat CPU 0 instructions: 27000002 cycles: 45291695 heartbeat IPC: 0.293199 cumulative IPC: 0.413339 (Simulation time: 0 hr 17 min 49 sec) 
Heartbeat CPU 0 instructions: 28000000 cycles: 46635638 heartbeat IPC: 0.744078 cumulative IPC: 0.423805 (Simulation time: 0 hr 18 min 18 sec) 
Heartbeat CPU 0 instructions: 29000002 cycles: 48453701 heartbeat IPC: 0.550037 cumulative IPC: 0.428986 (Simulation time: 0 hr 18 min 58 sec) 
Heartbeat CPU 0 instructions: 30000000 cycles: 51247576 heartbeat IPC: 0.357925 cumulative IPC: 0.42477 (Simulation time: 0 hr 19 min 40 sec) 
Heartbeat CPU 0 instructions: 31000001 cycles: 53706147 heartbeat IPC: 0.406741 cumulative IPC: 0.423875 (Simulation time: 0 hr 20 min 18 sec) 
Heartbeat CPU 0 instructions: 32000000 cycles: 56091364 heartbeat IPC: 0.419249 cumulative IPC: 0.423663 (Simulation time: 0 hr 20 min 51 sec) 
Heartbeat CPU 0 instructions: 33000001 cycles: 59313229 heartbeat IPC: 0.31038 cumulative IPC: 0.417045 (Simulation time: 0 hr 21 min 45 sec) 
Heartbeat CPU 0 instructions: 34000003 cycles: 61280261 heartbeat IPC: 0.508381 cumulative IPC: 0.42019 (Simulation time: 0 hr 22 min 35 sec) 
Heartbeat CPU 0 instructions: 35000003 cycles: 64284338 heartbeat IPC: 0.332881 cumulative IPC: 0.415827 (Simulation time: 0 hr 23 min 21 sec) 
Heartbeat CPU 0 instructions: 36000000 cycles: 65624034 heartbeat IPC: 0.746436 cumulative IPC: 0.423034 (Simulation time: 0 hr 23 min 50 sec) 
Heartbeat CPU 0 instructions: 37000000 cycles: 68201824 heartbeat IPC: 0.387929 cumulative IPC: 0.421621 (Simulation time: 0 hr 24 min 30 sec) 
Heartbeat CPU 0 instructions: 38000001 cycles: 70530015 heartbeat IPC: 0.429518 cumulative IPC: 0.421898 (Simulation time: 0 hr 25 min 12 sec) 
Heartbeat CPU 0 instructions: 39000003 cycles: 72946395 heartbeat IPC: 0.413843 cumulative IPC: 0.421615 (Simulation time: 0 hr 25 min 49 sec) 
Heartbeat CPU 0 instructions: 40000000 cycles: 75603306 heartbeat IPC: 0.376376 cumulative IPC: 0.419932 (Simulation time: 0 hr 26 min 33 sec) 
Heartbeat CPU 0 instructions: 41000001 cycles: 77737308 heartbeat IPC: 0.468604 cumulative IPC: 0.421344 (Simulation time: 0 hr 27 min 18 sec) 
Heartbeat CPU 0 instructions: 42000003 cycles: 79659301 heartbeat IPC: 0.520294 cumulative IPC: 0.423863 (Simulation time: 0 hr 28 min 1 sec) 
Heartbeat CPU 0 instructions: 43000000 cycles: 83017646 heartbeat IPC: 0.297765 cumulative IPC: 0.418493 (Simulation time: 0 hr 28 min 51 sec) 
Heartbeat CPU 0 instructions: 44000000 cycles: 84356117 heartbeat IPC: 0.747121 cumulative IPC: 0.423978 (Simulation time: 0 hr 29 min 18 sec) 
Heartbeat CPU 0 instructions: 45000003 cycles: 86551401 heartbeat IPC: 0.455523 cumulative IPC: 0.424818 (Simulation time: 0 hr 29 min 55 sec) 
Heartbeat CPU 0 instructions: 46000003 cycles: 89163219 heartbeat IPC: 0.382875 cumulative IPC: 0.42353 (Simulation time: 0 hr 30 min 41 sec) 
Heartbeat CPU 0 instructions: 47000001 cycles: 91578164 heartbeat IPC: 0.414087 cumulative IPC: 0.423269 (Simulation time: 0 hr 31 min 16 sec) 
Heartbeat CPU 0 instructions: 48000000 cycles: 94027408 heartbeat IPC: 0.408289 cumulative IPC: 0.42286 (Simulation time: 0 hr 31 min 51 sec) 
Heartbeat CPU 0 instructions: 49000000 cycles: 97480847 heartbeat IPC: 0.289566 cumulative IPC: 0.417928 (Simulation time: 0 hr 32 min 55 sec) 
Heartbeat CPU 0 instructions: 50000003 cycles: 103294226 heartbeat IPC: 0.172018 cumulative IPC: 0.403507 (Simulation time: 0 hr 33 min 57 sec) 
Heartbeat CPU 0 instructions: 51000002 cycles: 105740279 heartbeat IPC: 0.408821 cumulative IPC: 0.403635 (Simulation time: 0 hr 34 min 54 sec) 
Heartbeat CPU 0 instructions: 52000000 cycles: 109750752 heartbeat IPC: 0.249347 cumulative IPC: 0.397774 (Simulation time: 0 hr 35 min 50 sec) 
Heartbeat CPU 0 instructions: 53000003 cycles: 112459923 heartbeat IPC: 0.369118 cumulative IPC: 0.397057 (Simulation time: 0 hr 36 min 39 sec) 
Heartbeat CPU 0 instructions: 54000000 cycles: 114985058 heartbeat IPC: 0.396017 cumulative IPC: 0.397034 (Simulation time: 0 hr 37 min 26 sec) 
Heartbeat CPU 0 instructions: 55000002 cycles: 118698696 heartbeat IPC: 0.269278 cumulative IPC: 0.392891 (Simulation time: 0 hr 38 min 13 sec) 
Heartbeat CPU 0 instructions: 56000000 cycles: 122299129 heartbeat IPC: 0.277744 cumulative IPC: 0.389382 (Simulation time: 0 hr 39 min 4 sec) 
Heartbeat CPU 0 instructions: 57000003 cycles: 124925953 heartbeat IPC: 0.380689 cumulative IPC: 0.389193 (Simulation time: 0 hr 39 min 52 sec) 
Heartbeat CPU 0 instructions: 58000002 cycles: 127146438 heartbeat IPC: 0.450352 cumulative IPC: 0.390297 (Simulation time: 0 hr 40 min 36 sec) 
Heartbeat CPU 0 instructions: 59000002 cycles: 128685273 heartbeat IPC: 0.649842 cumulative IPC: 0.393505 (Simulation time: 0 hr 41 min 18 sec) 
Heartbeat CPU 0 instructions: 60000000 cycles: 129887231 heartbeat IPC: 0.831974 cumulative IPC: 0.397697 (Simulation time: 0 hr 41 min 58 sec) 
Heartbeat CPU 0 instructions: 61000002 cycles: 132603993 heartbeat IPC: 0.368086 cumulative IPC: 0.39707 (Simulation time: 0 hr 42 min 42 sec) 
Heartbeat CPU 0 instructions: 62000002 cycles: 135275420 heartbeat IPC: 0.374332 cumulative IPC: 0.396607 (Simulation time: 0 hr 43 min 37 sec) 
Heartbeat CPU 0 instructions: 63000002 cycles: 137379171 heartbeat IPC: 0.475341 cumulative IPC: 0.39785 (Simulation time: 0 hr 44 min 18 sec) 
Heartbeat CPU 0 instructions: 64000000 cycles: 139792978 heartbeat IPC: 0.414283 cumulative IPC: 0.398143 (Simulation time: 0 hr 44 min 52 sec) 
Heartbeat CPU 0 instructions: 65000000 cycles: 143736705 heartbeat IPC: 0.253567 cumulative IPC: 0.394058 (Simulation time: 0 hr 45 min 49 sec) 
Heartbeat CPU 0 instructions: 66000001 cycles: 145096528 heartbeat IPC: 0.735391 cumulative IPC: 0.397351 (Simulation time: 0 hr 46 min 18 sec) 
Heartbeat CPU 0 instructions: 67000000 cycles: 146447575 heartbeat IPC: 0.740166 cumulative IPC: 0.400606 (Simulation time: 0 hr 46 min 50 sec) 
Heartbeat CPU 0 instructions: 68000000 cycles: 149740952 heartbeat IPC: 0.30364 cumulative IPC: 0.398413 (Simulation time: 0 hr 47 min 39 sec) 
Heartbeat CPU 0 instructions: 69000000 cycles: 152348959 heartbeat IPC: 0.383435 cumulative IPC: 0.398149 (Simulation time: 0 hr 48 min 17 sec) 
Heartbeat CPU 0 instructions: 70000003 cycles: 154822559 heartbeat IPC: 0.40427 cumulative IPC: 0.39825 (Simulation time: 0 hr 48 min 53 sec) 
Heartbeat CPU 0 instructions: 71000000 cycles: 157325207 heartbeat IPC: 0.399576 cumulative IPC: 0.398271 (Simulation time: 0 hr 49 min 38 sec) 
Heartbeat CPU 0 instructions: 72000000 cycles: 159915617 heartbeat IPC: 0.386039 cumulative IPC: 0.398068 (Simulation time: 0 hr 50 min 19 sec) 
Heartbeat CPU 0 instructions: 73000002 cycles: 162715404 heartbeat IPC: 0.357171 cumulative IPC: 0.397346 (Simulation time: 0 hr 51 min 11 sec) 
Heartbeat CPU 0 instructions: 74000000 cycles: 164686572 heartbeat IPC: 0.507312 cumulative IPC: 0.398696 (Simulation time: 0 hr 51 min 44 sec) 
Heartbeat CPU 0 instructions: 75000002 cycles: 166018786 heartbeat IPC: 0.750632 cumulative IPC: 0.401593 (Simulation time: 0 hr 52 min 16 sec) 
Heartbeat CPU 0 instructions: 76000000 cycles: 169126251 heartbeat IPC: 0.321805 cumulative IPC: 0.40009 (Simulation time: 0 hr 52 min 56 sec) 
Heartbeat CPU 0 instructions: 77000000 cycles: 171452469 heartbeat IPC: 0.429882 cumulative IPC: 0.400504 (Simulation time: 0 hr 53 min 27 sec) 
Heartbeat CPU 0 instructions: 78000003 cycles: 173866738 heartbeat IPC: 0.414205 cumulative IPC: 0.400699 (Simulation time: 0 hr 53 min 57 sec) 
Heartbeat CPU 0 instructions: 79000001 cycles: 176939326 heartbeat IPC: 0.325458 cumulative IPC: 0.399361 (Simulation time: 0 hr 54 min 45 sec) 
Heartbeat CPU 0 instructions: 80000000 cycles: 179445606 heartbeat IPC: 0.398997 cumulative IPC: 0.399356 (Simulation time: 0 hr 55 min 20 sec) 
Heartbeat CPU 0 instructions: 81000003 cycles: 182462556 heartbeat IPC: 0.331462 cumulative IPC: 0.398207 (Simulation time: 0 hr 56 min 3 sec) 
Heartbeat CPU 0 instructions: 82000000 cycles: 184205384 heartbeat IPC: 0.573778 cumulative IPC: 0.399906 (Simulation time: 0 hr 56 min 31 sec) 
Heartbeat CPU 0 instructions: 83000001 cycles: 185530622 heartbeat IPC: 0.754582 cumulative IPC: 0.402498 (Simulation time: 0 hr 56 min 55 sec) 
Heartbeat CPU 0 instructions: 84000000 cycles: 188689315 heartbeat IPC: 0.316586 cumulative IPC: 0.401027 (Simulation time: 0 hr 57 min 37 sec) 
Heartbeat CPU 0 instructions: 85000002 cycles: 191035934 heartbeat IPC: 0.426146 cumulative IPC: 0.401343 (Simulation time: 0 hr 58 min 9 sec) 
Heartbeat CPU 0 instructions: 86000000 cycles: 193491124 heartbeat IPC: 0.4073 cumulative IPC: 0.40142 (Simulation time: 0 hr 58 min 36 sec) 
Heartbeat CPU 0 instructions: 87000000 cycles: 196398442 heartbeat IPC: 0.34396 cumulative IPC: 0.400551 (Simulation time: 0 hr 59 min 20 sec) 
Heartbeat CPU 0 instructions: 88000000 cycles: 198616523 heartbeat IPC: 0.45084 cumulative IPC: 0.401125 (Simulation time: 0 hr 59 min 59 sec) 
Heartbeat CPU 0 instructions: 89000001 cycles: 201892814 heartbeat IPC: 0.305223 cumulative IPC: 0.399536 (Simulation time: 1 hr 0 min 43 sec) 
Heartbeat CPU 0 instructions: 90000002 cycles: 203232596 heartbeat IPC: 0.746391 cumulative IPC: 0.40187 (Simulation time: 1 hr 1 min 7 sec) 
Heartbeat CPU 0 instructions: 91000000 cycles: 204633276 heartbeat IPC: 0.713938 cumulative IPC: 0.40405 (Simulation time: 1 hr 1 min 30 sec) 
Heartbeat CPU 0 instructions: 92000000 cycles: 207832908 heartbeat IPC: 0.312536 cumulative IPC: 0.402613 (Simulation time: 1 hr 2 min 9 sec) 
Heartbeat CPU 0 instructions: 93000000 cycles: 210442781 heartbeat IPC: 0.38316 cumulative IPC: 0.402367 (Simulation time: 1 hr 2 min 40 sec) 
Heartbeat CPU 0 instructions: 94000001 cycles: 212877704 heartbeat IPC: 0.410691 cumulative IPC: 0.402464 (Simulation time: 1 hr 3 min 9 sec) 
Heartbeat CPU 0 instructions: 95000003 cycles: 216003193 heartbeat IPC: 0.319951 cumulative IPC: 0.401246 (Simulation time: 1 hr 3 min 52 sec) 
Heartbeat CPU 0 instructions: 96000000 cycles: 217961244 heartbeat IPC: 0.51071 cumulative IPC: 0.402249 (Simulation time: 1 hr 4 min 30 sec) 
Heartbeat CPU 0 instructions: 97000003 cycles: 221228321 heartbeat IPC: 0.306085 cumulative IPC: 0.400801 (Simulation time: 1 hr 5 min 10 sec) 
Heartbeat CPU 0 instructions: 98000003 cycles: 222568785 heartbeat IPC: 0.74601 cumulative IPC: 0.40292 (Simulation time: 1 hr 5 min 27 sec) 
Heartbeat CPU 0 instructions: 99000000 cycles: 224860736 heartbeat IPC: 0.436308 cumulative IPC: 0.403267 (Simulation time: 1 hr 5 min 48 sec) 
Heartbeat CPU 0 instructions: 100000000 cycles: 227373707 heartbeat IPC: 0.397935 cumulative IPC: 0.403207 (Simulation time: 1 hr 6 min 17 sec) 
Heartbeat CPU 0 instructions: 101000001 cycles: 229795899 heartbeat IPC: 0.41285 cumulative IPC: 0.40331 (Simulation time: 1 hr 6 min 38 sec) 
Heartbeat CPU 0 instructions: 102000002 cycles: 232346329 heartbeat IPC: 0.392091 cumulative IPC: 0.403185 (Simulation time: 1 hr 7 min 2 sec) 
Heartbeat CPU 0 instructions: 103000002 cycles: 235401419 heartbeat IPC: 0.327323 cumulative IPC: 0.402183 (Simulation time: 1 hr 7 min 31 sec) 
Heartbeat CPU 0 instructions: 104000000 cycles: 237657914 heartbeat IPC: 0.443164 cumulative IPC: 0.402579 (Simulation time: 1 hr 8 min 2 sec) 
Heartbeat CPU 0 instructions: 105000000 cycles: 240110163 heartbeat IPC: 0.407789 cumulative IPC: 0.402633 (Simulation time: 1 hr 8 min 27 sec) 
Heartbeat CPU 0 instructions: 106000001 cycles: 241445073 heartbeat IPC: 0.749115 cumulative IPC: 0.404582 (Simulation time: 1 hr 8 min 45 sec) 
Heartbeat CPU 0 instructions: 107000001 cycles: 244350744 heartbeat IPC: 0.344155 cumulative IPC: 0.403851 (Simulation time: 1 hr 9 min 11 sec) 
Heartbeat CPU 0 instructions: 108000000 cycles: 246511093 heartbeat IPC: 0.462888 cumulative IPC: 0.404377 (Simulation time: 1 hr 9 min 33 sec) 
Heartbeat CPU 0 instructions: 109000003 cycles: 248924564 heartbeat IPC: 0.414342 cumulative IPC: 0.404476 (Simulation time: 1 hr 9 min 57 sec) 
Heartbeat CPU 0 instructions: 110000001 cycles: 251843251 heartbeat IPC: 0.342619 cumulative IPC: 0.403747 (Simulation time: 1 hr 10 min 28 sec) 
Finished CPU 0 instructions: 100000003 cycles: 247680001 cummulative IPC: 0.403747 (Simulation time: 1 hr 10 min 28 sec) 

ChampSim completed all CPUs

Region of Interest Statistics

CPU 0 cummulative IPC: 0.403747 instructions: 100000003 cycles: 247680001
LLC TOTAL     ACCESS:    6599157  HIT:    3031801  MISS:    3567356
LLC LOAD      ACCESS:    1697310  HIT:     769115  MISS:     928195
LLC RFO       ACCESS:     658469  HIT:     289768  MISS:     368701
LLC PREFETCH  ACCESS:    2682739  HIT:     939394  MISS:    1743345
LLC WRITEBACK ACCESS:    1560639  HIT:    1033524  MISS:     527115
