
*** ChampSim Multicore Out-of-Order Simulator ***

Warmup Instructions: 10000000
Simulation Instructions: 100000000
Configuration: 2
Number of CPUs: 1
LLC sets: 2048
LLC ways: 16
Off-chip DRAM Channels: 1 Width: 64-bit Data Rate: 1600 MT/s

CPU 0 runs /datasets/cs240c-wi22-a00-public/data/Assignment2-gz/calculix_3812B.trace.gz
CPU 0 L1D next line prefetcher
CPU 0 L2C IP-based stride prefetcher
Heartbeat CPU 0 instructions: 1000001 cycles: 478691 heartbeat IPC: 2.08903 cumulative IPC: 2.08903 (Simulation time: 0 hr 0 min 35 sec) 
Heartbeat CPU 0 instructions: 2000002 cycles: 956489 heartbeat IPC: 2.09294 cumulative IPC: 2.09098 (Simulation time: 0 hr 1 min 8 sec) 
Heartbeat CPU 0 instructions: 3000002 cycles: 1435004 heartbeat IPC: 2.0898 cumulative IPC: 2.09059 (Simulation time: 0 hr 1 min 37 sec) 
Heartbeat CPU 0 instructions: 4000000 cycles: 1907487 heartbeat IPC: 2.11647 cumulative IPC: 2.097 (Simulation time: 0 hr 2 min 10 sec) 
Heartbeat CPU 0 instructions: 5000000 cycles: 2356245 heartbeat IPC: 2.22837 cumulative IPC: 2.12202 (Simulation time: 0 hr 2 min 37 sec) 
Heartbeat CPU 0 instructions: 6000003 cycles: 2761627 heartbeat IPC: 2.46682 cumulative IPC: 2.17263 (Simulation time: 0 hr 3 min 1 sec) 
Heartbeat CPU 0 instructions: 7000002 cycles: 3154731 heartbeat IPC: 2.54385 cumulative IPC: 2.21889 (Simulation time: 0 hr 3 min 24 sec) 
Heartbeat CPU 0 instructions: 8000000 cycles: 3547877 heartbeat IPC: 2.54358 cumulative IPC: 2.25487 (Simulation time: 0 hr 3 min 46 sec) 
Heartbeat CPU 0 instructions: 9000000 cycles: 3940861 heartbeat IPC: 2.54463 cumulative IPC: 2.28376 (Simulation time: 0 hr 4 min 7 sec) 
Heartbeat CPU 0 instructions: 10000003 cycles: 4333953 heartbeat IPC: 2.54394 cumulative IPC: 2.30736 (Simulation time: 0 hr 4 min 30 sec) 

Warmup complete CPU 0 instructions: 10000003 cycles: 4333953 (Simulation time: 0 hr 4 min 30 sec) 

Heartbeat CPU 0 instructions: 11000001 cycles: 4784585 heartbeat IPC: 2.2191 cumulative IPC: 2.2191 (Simulation time: 0 hr 4 min 54 sec) 
Heartbeat CPU 0 instructions: 12000000 cycles: 5230312 heartbeat IPC: 2.24352 cumulative IPC: 2.23125 (Simulation time: 0 hr 5 min 21 sec) 
Heartbeat CPU 0 instructions: 13000002 cycles: 5675032 heartbeat IPC: 2.24861 cumulative IPC: 2.237 (Simulation time: 0 hr 5 min 48 sec) 
Heartbeat CPU 0 instructions: 14000000 cycles: 6473781 heartbeat IPC: 1.25196 cumulative IPC: 1.86931 (Simulation time: 0 hr 6 min 17 sec) 
Heartbeat CPU 0 instructions: 15000003 cycles: 7022134 heartbeat IPC: 1.82365 cumulative IPC: 1.85999 (Simulation time: 0 hr 6 min 51 sec) 
Heartbeat CPU 0 instructions: 16000000 cycles: 7562832 heartbeat IPC: 1.84946 cumulative IPC: 1.85823 (Simulation time: 0 hr 7 min 16 sec) 
Heartbeat CPU 0 instructions: 17000001 cycles: 8088825 heartbeat IPC: 1.90117 cumulative IPC: 1.86424 (Simulation time: 0 hr 7 min 42 sec) 
Heartbeat CPU 0 instructions: 18000001 cycles: 8597776 heartbeat IPC: 1.96483 cumulative IPC: 1.87625 (Simulation time: 0 hr 8 min 14 sec) 
Heartbeat CPU 0 instructions: 19000001 cycles: 9107493 heartbeat IPC: 1.96187 cumulative IPC: 1.88539 (Simulation time: 0 hr 8 min 40 sec) 
Heartbeat CPU 0 instructions: 20000000 cycles: 9688336 heartbeat IPC: 1.72163 cumulative IPC: 1.86763 (Simulation time: 0 hr 9 min 10 sec) 
Heartbeat CPU 0 instructions: 21000003 cycles: 10211123 heartbeat IPC: 1.91283 cumulative IPC: 1.87165 (Simulation time: 0 hr 9 min 35 sec) 
Heartbeat CPU 0 instructions: 22000000 cycles: 10739930 heartbeat IPC: 1.89104 cumulative IPC: 1.87325 (Simulation time: 0 hr 9 min 59 sec) 
Heartbeat CPU 0 instructions: 23000001 cycles: 11262662 heartbeat IPC: 1.91303 cumulative IPC: 1.87625 (Simulation time: 0 hr 10 min 26 sec) 
Heartbeat CPU 0 instructions: 24000000 cycles: 11795032 heartbeat IPC: 1.87839 cumulative IPC: 1.8764 (Simulation time: 0 hr 10 min 59 sec) 
Heartbeat CPU 0 instructions: 25000003 cycles: 12351403 heartbeat IPC: 1.79737 cumulative IPC: 1.87092 (Simulation time: 0 hr 11 min 32 sec) 
Heartbeat CPU 0 instructions: 26000003 cycles: 12899331 heartbeat IPC: 1.82506 cumulative IPC: 1.86799 (Simulation time: 0 hr 11 min 59 sec) 
Heartbeat CPU 0 instructions: 27000000 cycles: 13433431 heartbeat IPC: 1.8723 cumulative IPC: 1.86824 (Simulation time: 0 hr 12 min 26 sec) 
Heartbeat CPU 0 instructions: 28000000 cycles: 14073645 heartbeat IPC: 1.56198 cumulative IPC: 1.84811 (Simulation time: 0 hr 12 min 50 sec) 
Heartbeat CPU 0 instructions: 29000002 cycles: 14551692 heartbeat IPC: 2.09185 cumulative IPC: 1.85951 (Simulation time: 0 hr 13 min 18 sec) 
Heartbeat CPU 0 instructions: 30000001 cycles: 15102020 heartbeat IPC: 1.8171 cumulative IPC: 1.85734 (Simulation time: 0 hr 13 min 47 sec) 
Heartbeat CPU 0 instructions: 31000001 cycles: 15648872 heartbeat IPC: 1.82865 cumulative IPC: 1.85596 (Simulation time: 0 hr 14 min 12 sec) 
Heartbeat CPU 0 instructions: 32000000 cycles: 16378066 heartbeat IPC: 1.37138 cumulative IPC: 1.82662 (Simulation time: 0 hr 14 min 41 sec) 
Heartbeat CPU 0 instructions: 33000003 cycles: 17083111 heartbeat IPC: 1.41835 cumulative IPC: 1.80404 (Simulation time: 0 hr 15 min 10 sec) 
Heartbeat CPU 0 instructions: 34000000 cycles: 17783387 heartbeat IPC: 1.428 cumulative IPC: 1.78446 (Simulation time: 0 hr 15 min 46 sec) 
Heartbeat CPU 0 instructions: 35000000 cycles: 18456590 heartbeat IPC: 1.48544 cumulative IPC: 1.77021 (Simulation time: 0 hr 16 min 19 sec) 
Heartbeat CPU 0 instructions: 36000000 cycles: 19097921 heartbeat IPC: 1.55926 cumulative IPC: 1.76104 (Simulation time: 0 hr 16 min 48 sec) 
Heartbeat CPU 0 instructions: 37000002 cycles: 19723738 heartbeat IPC: 1.59791 cumulative IPC: 1.75441 (Simulation time: 0 hr 17 min 17 sec) 
Heartbeat CPU 0 instructions: 38000003 cycles: 20358745 heartbeat IPC: 1.57479 cumulative IPC: 1.74729 (Simulation time: 0 hr 17 min 47 sec) 
Heartbeat CPU 0 instructions: 39000003 cycles: 21121743 heartbeat IPC: 1.31062 cumulative IPC: 1.72745 (Simulation time: 0 hr 18 min 13 sec) 
Heartbeat CPU 0 instructions: 40000000 cycles: 21962060 heartbeat IPC: 1.19002 cumulative IPC: 1.70183 (Simulation time: 0 hr 18 min 42 sec) 
Heartbeat CPU 0 instructions: 41000000 cycles: 22894537 heartbeat IPC: 1.07241 cumulative IPC: 1.67021 (Simulation time: 0 hr 19 min 13 sec) 
Heartbeat CPU 0 instructions: 42000001 cycles: 23496332 heartbeat IPC: 1.6617 cumulative IPC: 1.66994 (Simulation time: 0 hr 19 min 40 sec) 
Heartbeat CPU 0 instructions: 43000000 cycles: 24117341 heartbeat IPC: 1.61028 cumulative IPC: 1.66807 (Simulation time: 0 hr 20 min 10 sec) 
Heartbeat CPU 0 instructions: 44000000 cycles: 24794098 heartbeat IPC: 1.47764 cumulative IPC: 1.66177 (Simulation time: 0 hr 20 min 46 sec) 
Heartbeat CPU 0 instructions: 45000002 cycles: 25468507 heartbeat IPC: 1.48278 cumulative IPC: 1.65606 (Simulation time: 0 hr 21 min 24 sec) 
Heartbeat CPU 0 instructions: 46000002 cycles: 26183532 heartbeat IPC: 1.39855 cumulative IPC: 1.64763 (Simulation time: 0 hr 21 min 59 sec) 
Heartbeat CPU 0 instructions: 47000002 cycles: 27108655 heartbeat IPC: 1.08094 cumulative IPC: 1.62461 (Simulation time: 0 hr 22 min 28 sec) 
Heartbeat CPU 0 instructions: 48000000 cycles: 27607878 heartbeat IPC: 2.00311 cumulative IPC: 1.63273 (Simulation time: 0 hr 22 min 54 sec) 
Heartbeat CPU 0 instructions: 49000000 cycles: 28106484 heartbeat IPC: 2.00559 cumulative IPC: 1.64055 (Simulation time: 0 hr 23 min 22 sec) 
Heartbeat CPU 0 instructions: 50000000 cycles: 28628966 heartbeat IPC: 1.91394 cumulative IPC: 1.64643 (Simulation time: 0 hr 23 min 45 sec) 
Heartbeat CPU 0 instructions: 51000000 cycles: 29236125 heartbeat IPC: 1.64701 cumulative IPC: 1.64644 (Simulation time: 0 hr 24 min 16 sec) 
Heartbeat CPU 0 instructions: 52000000 cycles: 29771441 heartbeat IPC: 1.86806 cumulative IPC: 1.65111 (Simulation time: 0 hr 24 min 41 sec) 
Heartbeat CPU 0 instructions: 53000000 cycles: 30220620 heartbeat IPC: 2.22628 cumulative IPC: 1.66109 (Simulation time: 0 hr 25 min 4 sec) 
Heartbeat CPU 0 instructions: 54000003 cycles: 30669344 heartbeat IPC: 2.22855 cumulative IPC: 1.67076 (Simulation time: 0 hr 25 min 27 sec) 
Heartbeat CPU 0 instructions: 55000001 cycles: 31117389 heartbeat IPC: 2.23191 cumulative IPC: 1.68014 (Simulation time: 0 hr 25 min 49 sec) 
Heartbeat CPU 0 instructions: 56000000 cycles: 31566328 heartbeat IPC: 2.22747 cumulative IPC: 1.68917 (Simulation time: 0 hr 26 min 13 sec) 
Heartbeat CPU 0 instructions: 57000003 cycles: 32017755 heartbeat IPC: 2.2152 cumulative IPC: 1.69774 (Simulation time: 0 hr 26 min 36 sec) 
Heartbeat CPU 0 instructions: 58000002 cycles: 32479510 heartbeat IPC: 2.16565 cumulative IPC: 1.70542 (Simulation time: 0 hr 27 min 4 sec) 
Heartbeat CPU 0 instructions: 59000001 cycles: 33020457 heartbeat IPC: 1.84861 cumulative IPC: 1.70812 (Simulation time: 0 hr 27 min 34 sec) 
Heartbeat CPU 0 instructions: 60000000 cycles: 33532513 heartbeat IPC: 1.95291 cumulative IPC: 1.71241 (Simulation time: 0 hr 28 min 3 sec) 
Heartbeat CPU 0 instructions: 61000003 cycles: 34056019 heartbeat IPC: 1.9102 cumulative IPC: 1.7159 (Simulation time: 0 hr 28 min 26 sec) 
Heartbeat CPU 0 instructions: 62000002 cycles: 34572935 heartbeat IPC: 1.93455 cumulative IPC: 1.71963 (Simulation time: 0 hr 28 min 54 sec) 
Heartbeat CPU 0 instructions: 63000003 cycles: 35095510 heartbeat IPC: 1.9136 cumulative IPC: 1.72293 (Simulation time: 0 hr 29 min 20 sec) 
Heartbeat CPU 0 instructions: 64000000 cycles: 35614501 heartbeat IPC: 1.92681 cumulative IPC: 1.72631 (Simulation time: 0 hr 29 min 46 sec) 
Heartbeat CPU 0 instructions: 65000000 cycles: 36307286 heartbeat IPC: 1.44345 cumulative IPC: 1.72018 (Simulation time: 0 hr 30 min 14 sec) 
Heartbeat CPU 0 instructions: 66000002 cycles: 36893145 heartbeat IPC: 1.7069 cumulative IPC: 1.71994 (Simulation time: 0 hr 30 min 40 sec) 
Heartbeat CPU 0 instructions: 67000002 cycles: 37413853 heartbeat IPC: 1.92046 cumulative IPC: 1.7231 (Simulation time: 0 hr 31 min 6 sec) 
Heartbeat CPU 0 instructions: 68000000 cycles: 37924885 heartbeat IPC: 1.95682 cumulative IPC: 1.72666 (Simulation time: 0 hr 31 min 34 sec) 
Heartbeat CPU 0 instructions: 69000003 cycles: 38482047 heartbeat IPC: 1.79482 cumulative IPC: 1.72777 (Simulation time: 0 hr 32 min 0 sec) 
Heartbeat CPU 0 instructions: 70000003 cycles: 39005476 heartbeat IPC: 1.91048 cumulative IPC: 1.73053 (Simulation time: 0 hr 32 min 34 sec) 
Heartbeat CPU 0 instructions: 71000000 cycles: 39534012 heartbeat IPC: 1.89201 cumulative IPC: 1.73295 (Simulation time: 0 hr 32 min 59 sec) 
Heartbeat CPU 0 instructions: 72000000 cycles: 40059519 heartbeat IPC: 1.90292 cumulative IPC: 1.73545 (Simulation time: 0 hr 33 min 26 sec) 
Heartbeat CPU 0 instructions: 73000001 cycles: 40623113 heartbeat IPC: 1.77433 cumulative IPC: 1.73606 (Simulation time: 0 hr 33 min 54 sec) 
Heartbeat CPU 0 instructions: 74000002 cycles: 41244264 heartbeat IPC: 1.60992 cumulative IPC: 1.73393 (Simulation time: 0 hr 34 min 22 sec) 
Heartbeat CPU 0 instructions: 75000000 cycles: 41790842 heartbeat IPC: 1.82956 cumulative IPC: 1.73533 (Simulation time: 0 hr 34 min 48 sec) 
Heartbeat CPU 0 instructions: 76000000 cycles: 42794150 heartbeat IPC: 0.996703 cumulative IPC: 1.71606 (Simulation time: 0 hr 35 min 19 sec) 
Heartbeat CPU 0 instructions: 77000000 cycles: 43642263 heartbeat IPC: 1.17909 cumulative IPC: 1.70447 (Simulation time: 0 hr 35 min 50 sec) 
Heartbeat CPU 0 instructions: 78000003 cycles: 44391507 heartbeat IPC: 1.33468 cumulative IPC: 1.69756 (Simulation time: 0 hr 36 min 20 sec) 
Heartbeat CPU 0 instructions: 79000000 cycles: 45105676 heartbeat IPC: 1.40022 cumulative IPC: 1.69235 (Simulation time: 0 hr 36 min 49 sec) 
Heartbeat CPU 0 instructions: 80000000 cycles: 45791560 heartbeat IPC: 1.45797 cumulative IPC: 1.68847 (Simulation time: 0 hr 37 min 20 sec) 
Heartbeat CPU 0 instructions: 81000001 cycles: 46455903 heartbeat IPC: 1.50525 cumulative IPC: 1.68558 (Simulation time: 0 hr 37 min 53 sec) 
Heartbeat CPU 0 instructions: 82000002 cycles: 47098861 heartbeat IPC: 1.55531 cumulative IPC: 1.68362 (Simulation time: 0 hr 38 min 27 sec) 
Heartbeat CPU 0 instructions: 83000002 cycles: 47945941 heartbeat IPC: 1.18053 cumulative IPC: 1.67385 (Simulation time: 0 hr 39 min 6 sec) 
Heartbeat CPU 0 instructions: 84000000 cycles: 48597335 heartbeat IPC: 1.53517 cumulative IPC: 1.67181 (Simulation time: 0 hr 39 min 34 sec) 
Heartbeat CPU 0 instructions: 85000000 cycles: 49151927 heartbeat IPC: 1.80313 cumulative IPC: 1.67344 (Simulation time: 0 hr 40 min 1 sec) 
Heartbeat CPU 0 instructions: 86000001 cycles: 49682116 heartbeat IPC: 1.88612 cumulative IPC: 1.67592 (Simulation time: 0 hr 40 min 28 sec) 
Heartbeat CPU 0 instructions: 87000002 cycles: 50205927 heartbeat IPC: 1.90909 cumulative IPC: 1.67858 (Simulation time: 0 hr 40 min 56 sec) 
Heartbeat CPU 0 instructions: 88000000 cycles: 50723850 heartbeat IPC: 1.93079 cumulative IPC: 1.6814 (Simulation time: 0 hr 41 min 24 sec) 
Heartbeat CPU 0 instructions: 89000003 cycles: 51241330 heartbeat IPC: 1.93245 cumulative IPC: 1.68417 (Simulation time: 0 hr 41 min 49 sec) 
Heartbeat CPU 0 instructions: 90000003 cycles: 51772055 heartbeat IPC: 1.88421 cumulative IPC: 1.68641 (Simulation time: 0 hr 42 min 21 sec) 
Heartbeat CPU 0 instructions: 91000001 cycles: 52316651 heartbeat IPC: 1.83622 cumulative IPC: 1.68811 (Simulation time: 0 hr 42 min 44 sec) 
Heartbeat CPU 0 instructions: 92000000 cycles: 52823638 heartbeat IPC: 1.97244 cumulative IPC: 1.69108 (Simulation time: 0 hr 43 min 13 sec) 
Heartbeat CPU 0 instructions: 93000003 cycles: 53298878 heartbeat IPC: 2.10421 cumulative IPC: 1.69509 (Simulation time: 0 hr 43 min 43 sec) 
Heartbeat CPU 0 instructions: 94000003 cycles: 53769508 heartbeat IPC: 2.12481 cumulative IPC: 1.69918 (Simulation time: 0 hr 44 min 8 sec) 
Heartbeat CPU 0 instructions: 95000002 cycles: 54376383 heartbeat IPC: 1.64778 cumulative IPC: 1.69856 (Simulation time: 0 hr 44 min 34 sec) 
Heartbeat CPU 0 instructions: 96000000 cycles: 54909006 heartbeat IPC: 1.8775 cumulative IPC: 1.70044 (Simulation time: 0 hr 44 min 58 sec) 
Heartbeat CPU 0 instructions: 97000000 cycles: 55379808 heartbeat IPC: 2.12404 cumulative IPC: 1.70435 (Simulation time: 0 hr 45 min 22 sec) 
Heartbeat CPU 0 instructions: 98000003 cycles: 55851665 heartbeat IPC: 2.11929 cumulative IPC: 1.70815 (Simulation time: 0 hr 45 min 46 sec) 
Heartbeat CPU 0 instructions: 99000000 cycles: 56321107 heartbeat IPC: 2.13018 cumulative IPC: 1.71196 (Simulation time: 0 hr 46 min 10 sec) 
Heartbeat CPU 0 instructions: 100000000 cycles: 56791781 heartbeat IPC: 2.12461 cumulative IPC: 1.71566 (Simulation time: 0 hr 46 min 37 sec) 
Heartbeat CPU 0 instructions: 101000003 cycles: 57261738 heartbeat IPC: 2.12786 cumulative IPC: 1.71932 (Simulation time: 0 hr 47 min 2 sec) 
Heartbeat CPU 0 instructions: 102000002 cycles: 57795102 heartbeat IPC: 1.87489 cumulative IPC: 1.72088 (Simulation time: 0 hr 47 min 32 sec) 
Heartbeat CPU 0 instructions: 103000000 cycles: 58337842 heartbeat IPC: 1.8425 cumulative IPC: 1.7221 (Simulation time: 0 hr 48 min 0 sec) 
Heartbeat CPU 0 instructions: 104000000 cycles: 58881908 heartbeat IPC: 1.83801 cumulative IPC: 1.72325 (Simulation time: 0 hr 48 min 27 sec) 
Heartbeat CPU 0 instructions: 105000000 cycles: 59432014 heartbeat IPC: 1.81783 cumulative IPC: 1.7242 (Simulation time: 0 hr 48 min 51 sec) 
Heartbeat CPU 0 instructions: 106000003 cycles: 59979513 heartbeat IPC: 1.82649 cumulative IPC: 1.72521 (Simulation time: 0 hr 49 min 17 sec) 
Heartbeat CPU 0 instructions: 107000000 cycles: 60529372 heartbeat IPC: 1.81864 cumulative IPC: 1.72612 (Simulation time: 0 hr 49 min 44 sec) 
Heartbeat CPU 0 instructions: 108000000 cycles: 61130234 heartbeat IPC: 1.66428 cumulative IPC: 1.72547 (Simulation time: 0 hr 50 min 10 sec) 
Heartbeat CPU 0 instructions: 109000002 cycles: 61780552 heartbeat IPC: 1.53771 cumulative IPC: 1.72334 (Simulation time: 0 hr 50 min 36 sec) 
Heartbeat CPU 0 instructions: 110000003 cycles: 62270852 heartbeat IPC: 2.03957 cumulative IPC: 1.72602 (Simulation time: 0 hr 51 min 0 sec) 
Finished CPU 0 instructions: 100000000 cycles: 57936899 cummulative IPC: 1.72602 (Simulation time: 0 hr 51 min 0 sec) 

ChampSim completed all CPUs

Region of Interest Statistics

CPU 0 cummulative IPC: 1.72602 instructions: 100000000 cycles: 57936899
LLC TOTAL     ACCESS:    1161490  HIT:     802818  MISS:     358672
LLC LOAD      ACCESS:     133268  HIT:     122561  MISS:      10707
LLC RFO       ACCESS:      47545  HIT:      15523  MISS:      32022
LLC PREFETCH  ACCESS:     680854  HIT:     423163  MISS:     257691
LLC WRITEBACK ACCESS:     299823  HIT:     241571  MISS:      58252
