
*** ChampSim Multicore Out-of-Order Simulator ***

Warmup Instructions: 10000000
Simulation Instructions: 100000000
Configuration: 2
Number of CPUs: 1
LLC sets: 2048
LLC ways: 16
Off-chip DRAM Channels: 1 Width: 64-bit Data Rate: 1600 MT/s

CPU 0 runs /datasets/cs240c-wi22-a00-public/data/Assignment2-gz/wrf_1228B.trace.gz
CPU 0 L1D next line prefetcher
CPU 0 L2C IP-based stride prefetcher
Heartbeat CPU 0 instructions: 1000003 cycles: 591062 heartbeat IPC: 1.69187 cumulative IPC: 1.69187 (Simulation time: 0 hr 0 min 44 sec) 
Heartbeat CPU 0 instructions: 2000002 cycles: 1111152 heartbeat IPC: 1.92274 cumulative IPC: 1.79994 (Simulation time: 0 hr 1 min 23 sec) 
Heartbeat CPU 0 instructions: 3000000 cycles: 1729111 heartbeat IPC: 1.61823 cumulative IPC: 1.735 (Simulation time: 0 hr 2 min 6 sec) 
Heartbeat CPU 0 instructions: 4000000 cycles: 2349763 heartbeat IPC: 1.61121 cumulative IPC: 1.7023 (Simulation time: 0 hr 2 min 49 sec) 
Heartbeat CPU 0 instructions: 5000000 cycles: 3052127 heartbeat IPC: 1.42376 cumulative IPC: 1.6382 (Simulation time: 0 hr 3 min 31 sec) 
Heartbeat CPU 0 instructions: 6000000 cycles: 3612217 heartbeat IPC: 1.78543 cumulative IPC: 1.66103 (Simulation time: 0 hr 4 min 13 sec) 
Heartbeat CPU 0 instructions: 7000001 cycles: 4164978 heartbeat IPC: 1.8091 cumulative IPC: 1.68068 (Simulation time: 0 hr 5 min 3 sec) 
Heartbeat CPU 0 instructions: 8000000 cycles: 4716342 heartbeat IPC: 1.81368 cumulative IPC: 1.69623 (Simulation time: 0 hr 5 min 47 sec) 
Heartbeat CPU 0 instructions: 9000002 cycles: 5266532 heartbeat IPC: 1.81756 cumulative IPC: 1.7089 (Simulation time: 0 hr 6 min 27 sec) 
Heartbeat CPU 0 instructions: 10000001 cycles: 5819428 heartbeat IPC: 1.80866 cumulative IPC: 1.71838 (Simulation time: 0 hr 7 min 7 sec) 

Warmup complete CPU 0 instructions: 10000001 cycles: 5819428 (Simulation time: 0 hr 7 min 7 sec) 

Heartbeat CPU 0 instructions: 11000000 cycles: 6678837 heartbeat IPC: 1.16359 cumulative IPC: 1.16359 (Simulation time: 0 hr 7 min 43 sec) 
Heartbeat CPU 0 instructions: 12000000 cycles: 7552568 heartbeat IPC: 1.14452 cumulative IPC: 1.15397 (Simulation time: 0 hr 8 min 18 sec) 
Heartbeat CPU 0 instructions: 13000003 cycles: 8432789 heartbeat IPC: 1.13608 cumulative IPC: 1.14795 (Simulation time: 0 hr 8 min 58 sec) 
Heartbeat CPU 0 instructions: 14000002 cycles: 9314824 heartbeat IPC: 1.13374 cumulative IPC: 1.14436 (Simulation time: 0 hr 9 min 32 sec) 
Heartbeat CPU 0 instructions: 15000001 cycles: 10149545 heartbeat IPC: 1.198 cumulative IPC: 1.1547 (Simulation time: 0 hr 10 min 7 sec) 
Heartbeat CPU 0 instructions: 16000000 cycles: 10971714 heartbeat IPC: 1.21629 cumulative IPC: 1.16453 (Simulation time: 0 hr 10 min 42 sec) 
Heartbeat CPU 0 instructions: 17000002 cycles: 11797207 heartbeat IPC: 1.2114 cumulative IPC: 1.171 (Simulation time: 0 hr 11 min 17 sec) 
Heartbeat CPU 0 instructions: 18000003 cycles: 12596964 heartbeat IPC: 1.25038 cumulative IPC: 1.18037 (Simulation time: 0 hr 11 min 53 sec) 
Heartbeat CPU 0 instructions: 19000000 cycles: 13391429 heartbeat IPC: 1.2587 cumulative IPC: 1.18859 (Simulation time: 0 hr 12 min 28 sec) 
Heartbeat CPU 0 instructions: 20000000 cycles: 14177327 heartbeat IPC: 1.27243 cumulative IPC: 1.19647 (Simulation time: 0 hr 13 min 3 sec) 
Heartbeat CPU 0 instructions: 21000000 cycles: 14950895 heartbeat IPC: 1.29271 cumulative IPC: 1.20463 (Simulation time: 0 hr 13 min 36 sec) 
Heartbeat CPU 0 instructions: 22000000 cycles: 15757902 heartbeat IPC: 1.23915 cumulative IPC: 1.20743 (Simulation time: 0 hr 14 min 13 sec) 
Heartbeat CPU 0 instructions: 23000003 cycles: 16701603 heartbeat IPC: 1.05966 cumulative IPC: 1.19461 (Simulation time: 0 hr 14 min 48 sec) 
Heartbeat CPU 0 instructions: 24000000 cycles: 17623686 heartbeat IPC: 1.0845 cumulative IPC: 1.18601 (Simulation time: 0 hr 15 min 23 sec) 
Heartbeat CPU 0 instructions: 25000000 cycles: 18545737 heartbeat IPC: 1.08454 cumulative IPC: 1.17866 (Simulation time: 0 hr 16 min 1 sec) 
Heartbeat CPU 0 instructions: 26000003 cycles: 19460154 heartbeat IPC: 1.0936 cumulative IPC: 1.17296 (Simulation time: 0 hr 16 min 40 sec) 
Heartbeat CPU 0 instructions: 27000003 cycles: 20371126 heartbeat IPC: 1.09773 cumulative IPC: 1.16825 (Simulation time: 0 hr 17 min 21 sec) 
Heartbeat CPU 0 instructions: 28000000 cycles: 21277705 heartbeat IPC: 1.10304 cumulative IPC: 1.16442 (Simulation time: 0 hr 18 min 2 sec) 
Heartbeat CPU 0 instructions: 29000003 cycles: 22980545 heartbeat IPC: 0.587256 cumulative IPC: 1.10715 (Simulation time: 0 hr 18 min 49 sec) 
Heartbeat CPU 0 instructions: 30000000 cycles: 24612868 heartbeat IPC: 0.612622 cumulative IPC: 1.0642 (Simulation time: 0 hr 19 min 35 sec) 
Heartbeat CPU 0 instructions: 31000003 cycles: 26366767 heartbeat IPC: 0.57016 cumulative IPC: 1.02203 (Simulation time: 0 hr 20 min 20 sec) 
Heartbeat CPU 0 instructions: 32000000 cycles: 28064612 heartbeat IPC: 0.58898 cumulative IPC: 0.988978 (Simulation time: 0 hr 21 min 4 sec) 
Heartbeat CPU 0 instructions: 33000002 cycles: 29476150 heartbeat IPC: 0.708449 cumulative IPC: 0.97224 (Simulation time: 0 hr 21 min 51 sec) 
Heartbeat CPU 0 instructions: 34000002 cycles: 30893452 heartbeat IPC: 0.705566 cumulative IPC: 0.957166 (Simulation time: 0 hr 22 min 37 sec) 
Heartbeat CPU 0 instructions: 35000001 cycles: 32551722 heartbeat IPC: 0.603037 cumulative IPC: 0.935198 (Simulation time: 0 hr 23 min 25 sec) 
Heartbeat CPU 0 instructions: 36000000 cycles: 33525362 heartbeat IPC: 1.02707 cumulative IPC: 0.938427 (Simulation time: 0 hr 24 min 3 sec) 
Heartbeat CPU 0 instructions: 37000001 cycles: 34486904 heartbeat IPC: 1.04 cumulative IPC: 0.941834 (Simulation time: 0 hr 24 min 41 sec) 
Heartbeat CPU 0 instructions: 38000003 cycles: 35425783 heartbeat IPC: 1.0651 cumulative IPC: 0.945743 (Simulation time: 0 hr 25 min 19 sec) 
Heartbeat CPU 0 instructions: 39000002 cycles: 36403776 heartbeat IPC: 1.0225 cumulative IPC: 0.948197 (Simulation time: 0 hr 25 min 55 sec) 
Heartbeat CPU 0 instructions: 40000000 cycles: 37347461 heartbeat IPC: 1.05967 cumulative IPC: 0.951534 (Simulation time: 0 hr 26 min 32 sec) 
Heartbeat CPU 0 instructions: 41000000 cycles: 38300414 heartbeat IPC: 1.04937 cumulative IPC: 0.954404 (Simulation time: 0 hr 27 min 10 sec) 
Heartbeat CPU 0 instructions: 42000002 cycles: 39241649 heartbeat IPC: 1.06244 cumulative IPC: 0.957447 (Simulation time: 0 hr 27 min 48 sec) 
Heartbeat CPU 0 instructions: 43000002 cycles: 40200571 heartbeat IPC: 1.04284 cumulative IPC: 0.959828 (Simulation time: 0 hr 28 min 25 sec) 
Heartbeat CPU 0 instructions: 44000000 cycles: 41097849 heartbeat IPC: 1.11448 cumulative IPC: 0.963762 (Simulation time: 0 hr 29 min 0 sec) 
Heartbeat CPU 0 instructions: 45000000 cycles: 41973301 heartbeat IPC: 1.14227 cumulative IPC: 0.968084 (Simulation time: 0 hr 29 min 33 sec) 
Heartbeat CPU 0 instructions: 46000001 cycles: 42845039 heartbeat IPC: 1.14713 cumulative IPC: 0.9723 (Simulation time: 0 hr 30 min 5 sec) 
Heartbeat CPU 0 instructions: 47000001 cycles: 43724454 heartbeat IPC: 1.13712 cumulative IPC: 0.976124 (Simulation time: 0 hr 30 min 39 sec) 
Heartbeat CPU 0 instructions: 48000000 cycles: 44595008 heartbeat IPC: 1.14869 cumulative IPC: 0.979998 (Simulation time: 0 hr 31 min 15 sec) 
Heartbeat CPU 0 instructions: 49000001 cycles: 45473694 heartbeat IPC: 1.13806 cumulative IPC: 0.983501 (Simulation time: 0 hr 31 min 50 sec) 
Heartbeat CPU 0 instructions: 50000002 cycles: 46356422 heartbeat IPC: 1.13285 cumulative IPC: 0.986753 (Simulation time: 0 hr 32 min 24 sec) 
Heartbeat CPU 0 instructions: 51000001 cycles: 47224241 heartbeat IPC: 1.15231 cumulative IPC: 0.990223 (Simulation time: 0 hr 32 min 59 sec) 
Heartbeat CPU 0 instructions: 52000000 cycles: 48155957 heartbeat IPC: 1.07329 cumulative IPC: 0.992051 (Simulation time: 0 hr 33 min 38 sec) 
Heartbeat CPU 0 instructions: 53000002 cycles: 49139840 heartbeat IPC: 1.01638 cumulative IPC: 0.992604 (Simulation time: 0 hr 34 min 18 sec) 
Heartbeat CPU 0 instructions: 54000001 cycles: 50133031 heartbeat IPC: 1.00685 cumulative IPC: 0.992923 (Simulation time: 0 hr 34 min 56 sec) 
Heartbeat CPU 0 instructions: 55000003 cycles: 51119964 heartbeat IPC: 1.01324 cumulative IPC: 0.993366 (Simulation time: 0 hr 35 min 37 sec) 
Heartbeat CPU 0 instructions: 56000000 cycles: 52117146 heartbeat IPC: 1.00282 cumulative IPC: 0.993569 (Simulation time: 0 hr 36 min 12 sec) 
Heartbeat CPU 0 instructions: 57000001 cycles: 53101386 heartbeat IPC: 1.01601 cumulative IPC: 0.994037 (Simulation time: 0 hr 36 min 49 sec) 
Heartbeat CPU 0 instructions: 58000000 cycles: 54080879 heartbeat IPC: 1.02094 cumulative IPC: 0.994583 (Simulation time: 0 hr 37 min 24 sec) 
Heartbeat CPU 0 instructions: 59000001 cycles: 55639932 heartbeat IPC: 0.641416 cumulative IPC: 0.983531 (Simulation time: 0 hr 38 min 13 sec) 
Heartbeat CPU 0 instructions: 60000000 cycles: 57203509 heartbeat IPC: 0.639559 cumulative IPC: 0.973064 (Simulation time: 0 hr 38 min 57 sec) 
Heartbeat CPU 0 instructions: 61000000 cycles: 59171429 heartbeat IPC: 0.508151 cumulative IPC: 0.955915 (Simulation time: 0 hr 39 min 42 sec) 
Heartbeat CPU 0 instructions: 62000000 cycles: 60754930 heartbeat IPC: 0.631512 cumulative IPC: 0.946565 (Simulation time: 0 hr 40 min 26 sec) 
Heartbeat CPU 0 instructions: 63000001 cycles: 62211955 heartbeat IPC: 0.686331 cumulative IPC: 0.939841 (Simulation time: 0 hr 41 min 10 sec) 
Heartbeat CPU 0 instructions: 64000000 cycles: 63689591 heartbeat IPC: 0.676756 cumulative IPC: 0.933123 (Simulation time: 0 hr 41 min 57 sec) 
Heartbeat CPU 0 instructions: 65000003 cycles: 65184416 heartbeat IPC: 0.668977 cumulative IPC: 0.926472 (Simulation time: 0 hr 42 min 40 sec) 
Heartbeat CPU 0 instructions: 66000000 cycles: 66680381 heartbeat IPC: 0.668463 cumulative IPC: 0.92013 (Simulation time: 0 hr 43 min 25 sec) 
Heartbeat CPU 0 instructions: 67000000 cycles: 68174903 heartbeat IPC: 0.66911 cumulative IPC: 0.914114 (Simulation time: 0 hr 44 min 12 sec) 
Heartbeat CPU 0 instructions: 68000000 cycles: 69669362 heartbeat IPC: 0.669138 cumulative IPC: 0.90838 (Simulation time: 0 hr 44 min 56 sec) 
Heartbeat CPU 0 instructions: 69000000 cycles: 71176609 heartbeat IPC: 0.663461 cumulative IPC: 0.902732 (Simulation time: 0 hr 45 min 47 sec) 
Heartbeat CPU 0 instructions: 70000001 cycles: 72673440 heartbeat IPC: 0.668079 cumulative IPC: 0.897478 (Simulation time: 0 hr 46 min 36 sec) 
Heartbeat CPU 0 instructions: 71000001 cycles: 74167467 heartbeat IPC: 0.669332 cumulative IPC: 0.892491 (Simulation time: 0 hr 47 min 17 sec) 
Heartbeat CPU 0 instructions: 72000000 cycles: 75650415 heartbeat IPC: 0.674332 cumulative IPC: 0.887858 (Simulation time: 0 hr 48 min 3 sec) 
Heartbeat CPU 0 instructions: 73000003 cycles: 77138123 heartbeat IPC: 0.672177 cumulative IPC: 0.883359 (Simulation time: 0 hr 48 min 47 sec) 
Heartbeat CPU 0 instructions: 74000000 cycles: 78635652 heartbeat IPC: 0.667765 cumulative IPC: 0.878925 (Simulation time: 0 hr 49 min 30 sec) 
Heartbeat CPU 0 instructions: 75000001 cycles: 80129629 heartbeat IPC: 0.669355 cumulative IPC: 0.874712 (Simulation time: 0 hr 50 min 20 sec) 
Heartbeat CPU 0 instructions: 76000000 cycles: 81626059 heartbeat IPC: 0.668256 cumulative IPC: 0.870636 (Simulation time: 0 hr 51 min 5 sec) 
Heartbeat CPU 0 instructions: 77000003 cycles: 83119853 heartbeat IPC: 0.669438 cumulative IPC: 0.866748 (Simulation time: 0 hr 51 min 48 sec) 
Heartbeat CPU 0 instructions: 78000001 cycles: 84614548 heartbeat IPC: 0.669032 cumulative IPC: 0.862998 (Simulation time: 0 hr 52 min 33 sec) 
Heartbeat CPU 0 instructions: 79000000 cycles: 86110985 heartbeat IPC: 0.668253 cumulative IPC: 0.859368 (Simulation time: 0 hr 53 min 19 sec) 
Heartbeat CPU 0 instructions: 80000000 cycles: 87601367 heartbeat IPC: 0.670969 cumulative IPC: 0.855935 (Simulation time: 0 hr 54 min 3 sec) 
Heartbeat CPU 0 instructions: 81000001 cycles: 89085288 heartbeat IPC: 0.673891 cumulative IPC: 0.85269 (Simulation time: 0 hr 54 min 47 sec) 
Heartbeat CPU 0 instructions: 82000000 cycles: 90568450 heartbeat IPC: 0.674235 cumulative IPC: 0.849567 (Simulation time: 0 hr 55 min 29 sec) 
Heartbeat CPU 0 instructions: 83000000 cycles: 92051799 heartbeat IPC: 0.67415 cumulative IPC: 0.84655 (Simulation time: 0 hr 56 min 11 sec) 
Heartbeat CPU 0 instructions: 84000000 cycles: 93546710 heartbeat IPC: 0.668936 cumulative IPC: 0.843523 (Simulation time: 0 hr 56 min 53 sec) 
Heartbeat CPU 0 instructions: 85000000 cycles: 95041593 heartbeat IPC: 0.668949 cumulative IPC: 0.840598 (Simulation time: 0 hr 57 min 29 sec) 
Heartbeat CPU 0 instructions: 86000000 cycles: 96535388 heartbeat IPC: 0.669436 cumulative IPC: 0.83778 (Simulation time: 0 hr 58 min 10 sec) 
Heartbeat CPU 0 instructions: 87000000 cycles: 98030239 heartbeat IPC: 0.668963 cumulative IPC: 0.835043 (Simulation time: 0 hr 58 min 44 sec) 
Heartbeat CPU 0 instructions: 88000000 cycles: 99525460 heartbeat IPC: 0.668797 cumulative IPC: 0.83239 (Simulation time: 0 hr 59 min 20 sec) 
Heartbeat CPU 0 instructions: 89000002 cycles: 101021088 heartbeat IPC: 0.668617 cumulative IPC: 0.829817 (Simulation time: 1 hr 0 min 1 sec) 
Heartbeat CPU 0 instructions: 90000000 cycles: 102505426 heartbeat IPC: 0.6737 cumulative IPC: 0.827421 (Simulation time: 1 hr 0 min 40 sec) 
Heartbeat CPU 0 instructions: 91000000 cycles: 103989023 heartbeat IPC: 0.674038 cumulative IPC: 0.825103 (Simulation time: 1 hr 1 min 15 sec) 
Heartbeat CPU 0 instructions: 92000000 cycles: 105472864 heartbeat IPC: 0.673927 cumulative IPC: 0.822852 (Simulation time: 1 hr 1 min 50 sec) 
Heartbeat CPU 0 instructions: 93000000 cycles: 106962602 heartbeat IPC: 0.671259 cumulative IPC: 0.820619 (Simulation time: 1 hr 2 min 30 sec) 
Heartbeat CPU 0 instructions: 94000003 cycles: 108456624 heartbeat IPC: 0.669336 cumulative IPC: 0.818417 (Simulation time: 1 hr 3 min 7 sec) 
Heartbeat CPU 0 instructions: 95000000 cycles: 109952418 heartbeat IPC: 0.668539 cumulative IPC: 0.816264 (Simulation time: 1 hr 3 min 43 sec) 
Heartbeat CPU 0 instructions: 96000000 cycles: 111446480 heartbeat IPC: 0.669316 cumulative IPC: 0.814185 (Simulation time: 1 hr 4 min 16 sec) 
Heartbeat CPU 0 instructions: 97000001 cycles: 112942028 heartbeat IPC: 0.668652 cumulative IPC: 0.812154 (Simulation time: 1 hr 4 min 44 sec) 
Heartbeat CPU 0 instructions: 98000003 cycles: 114437386 heartbeat IPC: 0.668738 cumulative IPC: 0.810179 (Simulation time: 1 hr 5 min 11 sec) 
Heartbeat CPU 0 instructions: 99000000 cycles: 115927122 heartbeat IPC: 0.671258 cumulative IPC: 0.8083 (Simulation time: 1 hr 5 min 37 sec) 
Heartbeat CPU 0 instructions: 100000000 cycles: 117410517 heartbeat IPC: 0.674129 cumulative IPC: 0.806516 (Simulation time: 1 hr 6 min 3 sec) 
Heartbeat CPU 0 instructions: 101000000 cycles: 118894018 heartbeat IPC: 0.674081 cumulative IPC: 0.804779 (Simulation time: 1 hr 6 min 29 sec) 
Heartbeat CPU 0 instructions: 102000003 cycles: 120377597 heartbeat IPC: 0.674048 cumulative IPC: 0.803086 (Simulation time: 1 hr 6 min 56 sec) 
Heartbeat CPU 0 instructions: 103000003 cycles: 121873864 heartbeat IPC: 0.66833 cumulative IPC: 0.801348 (Simulation time: 1 hr 7 min 21 sec) 
Heartbeat CPU 0 instructions: 104000000 cycles: 123368403 heartbeat IPC: 0.669101 cumulative IPC: 0.799667 (Simulation time: 1 hr 7 min 46 sec) 
Heartbeat CPU 0 instructions: 105000000 cycles: 124863216 heartbeat IPC: 0.66898 cumulative IPC: 0.798026 (Simulation time: 1 hr 8 min 11 sec) 
Heartbeat CPU 0 instructions: 106000000 cycles: 126358274 heartbeat IPC: 0.66887 cumulative IPC: 0.796424 (Simulation time: 1 hr 8 min 37 sec) 
Heartbeat CPU 0 instructions: 107000000 cycles: 127854122 heartbeat IPC: 0.668517 cumulative IPC: 0.794856 (Simulation time: 1 hr 9 min 2 sec) 
Heartbeat CPU 0 instructions: 108000000 cycles: 129349812 heartbeat IPC: 0.668588 cumulative IPC: 0.793327 (Simulation time: 1 hr 9 min 27 sec) 
Heartbeat CPU 0 instructions: 109000003 cycles: 130832672 heartbeat IPC: 0.674375 cumulative IPC: 0.791916 (Simulation time: 1 hr 9 min 52 sec) 
Heartbeat CPU 0 instructions: 110000001 cycles: 132315873 heartbeat IPC: 0.674216 cumulative IPC: 0.790536 (Simulation time: 1 hr 10 min 21 sec) 
Finished CPU 0 instructions: 100000000 cycles: 126496445 cummulative IPC: 0.790536 (Simulation time: 1 hr 10 min 21 sec) 

ChampSim completed all CPUs

Region of Interest Statistics

CPU 0 cummulative IPC: 0.790536 instructions: 100000000 cycles: 126496445
LLC TOTAL     ACCESS:    1495353  HIT:     510046  MISS:     985307
LLC LOAD      ACCESS:      90429  HIT:      31301  MISS:      59128
LLC RFO       ACCESS:     219210  HIT:      58287  MISS:     160923
LLC PREFETCH  ACCESS:     749569  HIT:     161768  MISS:     587801
LLC WRITEBACK ACCESS:     436145  HIT:     258690  MISS:     177455
