
*** ChampSim Multicore Out-of-Order Simulator ***

Warmup Instructions: 10000000
Simulation Instructions: 100000000
Configuration: 2
Number of CPUs: 1
LLC sets: 2048
LLC ways: 16
Off-chip DRAM Channels: 1 Width: 64-bit Data Rate: 1600 MT/s

CPU 0 runs /datasets/cs240c-wi22-a00-public/data/Assignment2-gz/mcf_46B.trace.gz
CPU 0 L1D next line prefetcher
CPU 0 L2C IP-based stride prefetcher
Heartbeat CPU 0 instructions: 1000002 cycles: 492204 heartbeat IPC: 2.03168 cumulative IPC: 2.03168 (Simulation time: 0 hr 0 min 48 sec) 
Heartbeat CPU 0 instructions: 2000002 cycles: 987416 heartbeat IPC: 2.01934 cumulative IPC: 2.02549 (Simulation time: 0 hr 1 min 30 sec) 
Heartbeat CPU 0 instructions: 3000003 cycles: 1515884 heartbeat IPC: 1.89226 cumulative IPC: 1.97905 (Simulation time: 0 hr 2 min 16 sec) 
Heartbeat CPU 0 instructions: 4000000 cycles: 2040292 heartbeat IPC: 1.90691 cumulative IPC: 1.9605 (Simulation time: 0 hr 3 min 9 sec) 
Heartbeat CPU 0 instructions: 5000000 cycles: 2534030 heartbeat IPC: 2.02537 cumulative IPC: 1.97314 (Simulation time: 0 hr 3 min 59 sec) 
Heartbeat CPU 0 instructions: 6000002 cycles: 3037068 heartbeat IPC: 1.98793 cumulative IPC: 1.97559 (Simulation time: 0 hr 4 min 52 sec) 
Heartbeat CPU 0 instructions: 7000001 cycles: 3581021 heartbeat IPC: 1.83839 cumulative IPC: 1.95475 (Simulation time: 0 hr 5 min 42 sec) 
Heartbeat CPU 0 instructions: 8000000 cycles: 4071728 heartbeat IPC: 2.03787 cumulative IPC: 1.96477 (Simulation time: 0 hr 6 min 27 sec) 
Heartbeat CPU 0 instructions: 9000001 cycles: 4555089 heartbeat IPC: 2.06885 cumulative IPC: 1.97581 (Simulation time: 0 hr 7 min 12 sec) 
Heartbeat CPU 0 instructions: 10000001 cycles: 5091312 heartbeat IPC: 1.8649 cumulative IPC: 1.96413 (Simulation time: 0 hr 8 min 10 sec) 

Warmup complete CPU 0 instructions: 10000001 cycles: 5091312 (Simulation time: 0 hr 8 min 10 sec) 

Heartbeat CPU 0 instructions: 11000002 cycles: 16762270 heartbeat IPC: 0.0856829 cumulative IPC: 0.0856829 (Simulation time: 0 hr 9 min 39 sec) 
Heartbeat CPU 0 instructions: 12000000 cycles: 21571429 heartbeat IPC: 0.207936 cumulative IPC: 0.121358 (Simulation time: 0 hr 10 min 47 sec) 
Heartbeat CPU 0 instructions: 13000000 cycles: 29341099 heartbeat IPC: 0.128706 cumulative IPC: 0.123712 (Simulation time: 0 hr 11 min 57 sec) 
Heartbeat CPU 0 instructions: 14000003 cycles: 44055904 heartbeat IPC: 0.067959 cumulative IPC: 0.102657 (Simulation time: 0 hr 13 min 38 sec) 
Heartbeat CPU 0 instructions: 15000000 cycles: 48926083 heartbeat IPC: 0.205331 cumulative IPC: 0.114065 (Simulation time: 0 hr 14 min 39 sec) 
Heartbeat CPU 0 instructions: 16000000 cycles: 53334757 heartbeat IPC: 0.226826 cumulative IPC: 0.124369 (Simulation time: 0 hr 15 min 41 sec) 
Heartbeat CPU 0 instructions: 17000002 cycles: 68452120 heartbeat IPC: 0.0661492 cumulative IPC: 0.110478 (Simulation time: 0 hr 17 min 23 sec) 
Heartbeat CPU 0 instructions: 18000001 cycles: 74266134 heartbeat IPC: 0.171998 cumulative IPC: 0.115649 (Simulation time: 0 hr 18 min 29 sec) 
Heartbeat CPU 0 instructions: 19000002 cycles: 79344306 heartbeat IPC: 0.196921 cumulative IPC: 0.121207 (Simulation time: 0 hr 19 min 33 sec) 
Heartbeat CPU 0 instructions: 20000000 cycles: 92306642 heartbeat IPC: 0.0771464 cumulative IPC: 0.114659 (Simulation time: 0 hr 21 min 6 sec) 
Heartbeat CPU 0 instructions: 21000002 cycles: 108878466 heartbeat IPC: 0.0603435 cumulative IPC: 0.105986 (Simulation time: 0 hr 22 min 40 sec) 
Heartbeat CPU 0 instructions: 22000002 cycles: 113924412 heartbeat IPC: 0.198179 cumulative IPC: 0.110261 (Simulation time: 0 hr 23 min 43 sec) 
Heartbeat CPU 0 instructions: 23000001 cycles: 118538592 heartbeat IPC: 0.216723 cumulative IPC: 0.114591 (Simulation time: 0 hr 24 min 44 sec) 
Heartbeat CPU 0 instructions: 24000000 cycles: 131466016 heartbeat IPC: 0.0773549 cumulative IPC: 0.110782 (Simulation time: 0 hr 26 min 18 sec) 
Heartbeat CPU 0 instructions: 25000002 cycles: 139537194 heartbeat IPC: 0.123898 cumulative IPC: 0.111569 (Simulation time: 0 hr 27 min 35 sec) 
Heartbeat CPU 0 instructions: 26000001 cycles: 144021113 heartbeat IPC: 0.223019 cumulative IPC: 0.115166 (Simulation time: 0 hr 28 min 36 sec) 
Heartbeat CPU 0 instructions: 27000000 cycles: 153767179 heartbeat IPC: 0.102605 cumulative IPC: 0.114343 (Simulation time: 0 hr 29 min 57 sec) 
Heartbeat CPU 0 instructions: 28000000 cycles: 165348205 heartbeat IPC: 0.0863481 cumulative IPC: 0.11232 (Simulation time: 0 hr 31 min 20 sec) 
Heartbeat CPU 0 instructions: 29000001 cycles: 170486242 heartbeat IPC: 0.194627 cumulative IPC: 0.114877 (Simulation time: 0 hr 32 min 22 sec) 
Heartbeat CPU 0 instructions: 30000000 cycles: 178118182 heartbeat IPC: 0.131028 cumulative IPC: 0.115589 (Simulation time: 0 hr 33 min 33 sec) 
Heartbeat CPU 0 instructions: 31000002 cycles: 191774572 heartbeat IPC: 0.0732259 cumulative IPC: 0.11249 (Simulation time: 0 hr 35 min 6 sec) 
Heartbeat CPU 0 instructions: 32000000 cycles: 196712993 heartbeat IPC: 0.202493 cumulative IPC: 0.11481 (Simulation time: 0 hr 36 min 17 sec) 
Heartbeat CPU 0 instructions: 33000000 cycles: 203073039 heartbeat IPC: 0.157232 cumulative IPC: 0.116172 (Simulation time: 0 hr 37 min 19 sec) 
Heartbeat CPU 0 instructions: 34000000 cycles: 218006924 heartbeat IPC: 0.0669618 cumulative IPC: 0.112721 (Simulation time: 0 hr 38 min 52 sec) 
Heartbeat CPU 0 instructions: 35000000 cycles: 224679801 heartbeat IPC: 0.14986 cumulative IPC: 0.113849 (Simulation time: 0 hr 39 min 51 sec) 
Heartbeat CPU 0 instructions: 36000000 cycles: 231353848 heartbeat IPC: 0.149834 cumulative IPC: 0.114911 (Simulation time: 0 hr 40 min 44 sec) 
Heartbeat CPU 0 instructions: 37000002 cycles: 241364738 heartbeat IPC: 0.0998914 cumulative IPC: 0.114274 (Simulation time: 0 hr 42 min 2 sec) 
Heartbeat CPU 0 instructions: 38000000 cycles: 252713593 heartbeat IPC: 0.0881144 cumulative IPC: 0.113075 (Simulation time: 0 hr 43 min 17 sec) 
Heartbeat CPU 0 instructions: 39000000 cycles: 257506096 heartbeat IPC: 0.208659 cumulative IPC: 0.11489 (Simulation time: 0 hr 44 min 17 sec) 
Heartbeat CPU 0 instructions: 40000000 cycles: 263836766 heartbeat IPC: 0.157961 cumulative IPC: 0.115944 (Simulation time: 0 hr 45 min 17 sec) 
Heartbeat CPU 0 instructions: 41000000 cycles: 278401269 heartbeat IPC: 0.0686601 cumulative IPC: 0.113424 (Simulation time: 0 hr 46 min 42 sec) 
Heartbeat CPU 0 instructions: 42000001 cycles: 283917015 heartbeat IPC: 0.181299 cumulative IPC: 0.114767 (Simulation time: 0 hr 47 min 45 sec) 
Heartbeat CPU 0 instructions: 43000000 cycles: 288641192 heartbeat IPC: 0.211677 cumulative IPC: 0.116382 (Simulation time: 0 hr 48 min 46 sec) 
Heartbeat CPU 0 instructions: 44000000 cycles: 301837289 heartbeat IPC: 0.07578 cumulative IPC: 0.114576 (Simulation time: 0 hr 50 min 9 sec) 
Heartbeat CPU 0 instructions: 45000001 cycles: 309856984 heartbeat IPC: 0.124693 cumulative IPC: 0.114842 (Simulation time: 0 hr 51 min 19 sec) 
Heartbeat CPU 0 instructions: 46000001 cycles: 314735808 heartbeat IPC: 0.204967 cumulative IPC: 0.116262 (Simulation time: 0 hr 52 min 13 sec) 
Heartbeat CPU 0 instructions: 47000002 cycles: 324344595 heartbeat IPC: 0.104072 cumulative IPC: 0.115895 (Simulation time: 0 hr 53 min 24 sec) 
Heartbeat CPU 0 instructions: 48000000 cycles: 336119338 heartbeat IPC: 0.0849274 cumulative IPC: 0.114794 (Simulation time: 0 hr 54 min 44 sec) 
Heartbeat CPU 0 instructions: 49000000 cycles: 341340881 heartbeat IPC: 0.191514 cumulative IPC: 0.115985 (Simulation time: 0 hr 55 min 43 sec) 
Heartbeat CPU 0 instructions: 50000001 cycles: 348038886 heartbeat IPC: 0.149298 cumulative IPC: 0.116636 (Simulation time: 0 hr 56 min 47 sec) 
Heartbeat CPU 0 instructions: 51000001 cycles: 362351545 heartbeat IPC: 0.0698682 cumulative IPC: 0.114762 (Simulation time: 0 hr 58 min 7 sec) 
Heartbeat CPU 0 instructions: 52000000 cycles: 367520121 heartbeat IPC: 0.193477 cumulative IPC: 0.115885 (Simulation time: 0 hr 59 min 0 sec) 
Heartbeat CPU 0 instructions: 53000000 cycles: 372252486 heartbeat IPC: 0.211311 cumulative IPC: 0.117115 (Simulation time: 0 hr 59 min 49 sec) 
Heartbeat CPU 0 instructions: 54000002 cycles: 387635762 heartbeat IPC: 0.0650058 cumulative IPC: 0.115019 (Simulation time: 1 hr 1 min 8 sec) 
Heartbeat CPU 0 instructions: 55000002 cycles: 393502759 heartbeat IPC: 0.170445 cumulative IPC: 0.115857 (Simulation time: 1 hr 1 min 58 sec) 
Heartbeat CPU 0 instructions: 56000000 cycles: 398438478 heartbeat IPC: 0.202604 cumulative IPC: 0.116945 (Simulation time: 1 hr 2 min 46 sec) 
Heartbeat CPU 0 instructions: 57000000 cycles: 411813979 heartbeat IPC: 0.0747636 cumulative IPC: 0.115558 (Simulation time: 1 hr 3 min 46 sec) 
Heartbeat CPU 0 instructions: 58000000 cycles: 419946752 heartbeat IPC: 0.122959 cumulative IPC: 0.115703 (Simulation time: 1 hr 4 min 39 sec) 
Heartbeat CPU 0 instructions: 59000002 cycles: 424762607 heartbeat IPC: 0.207648 cumulative IPC: 0.116758 (Simulation time: 1 hr 5 min 19 sec) 
Heartbeat CPU 0 instructions: 60000000 cycles: 436430922 heartbeat IPC: 0.085702 cumulative IPC: 0.115918 (Simulation time: 1 hr 6 min 12 sec) 
Heartbeat CPU 0 instructions: 61000002 cycles: 446499446 heartbeat IPC: 0.0993196 cumulative IPC: 0.115539 (Simulation time: 1 hr 7 min 3 sec) 
Heartbeat CPU 0 instructions: 62000001 cycles: 451508638 heartbeat IPC: 0.199633 cumulative IPC: 0.116483 (Simulation time: 1 hr 7 min 38 sec) 
Heartbeat CPU 0 instructions: 63000001 cycles: 461721478 heartbeat IPC: 0.097916 cumulative IPC: 0.116068 (Simulation time: 1 hr 8 min 22 sec) 
Heartbeat CPU 0 instructions: 64000000 cycles: 473493824 heartbeat IPC: 0.0849447 cumulative IPC: 0.115285 (Simulation time: 1 hr 9 min 4 sec) 
Heartbeat CPU 0 instructions: 65000000 cycles: 478871493 heartbeat IPC: 0.185954 cumulative IPC: 0.116088 (Simulation time: 1 hr 9 min 38 sec) 
Heartbeat CPU 0 instructions: 66000000 cycles: 485321944 heartbeat IPC: 0.155028 cumulative IPC: 0.116611 (Simulation time: 1 hr 10 min 15 sec) 
Heartbeat CPU 0 instructions: 67000002 cycles: 501116765 heartbeat IPC: 0.063312 cumulative IPC: 0.114913 (Simulation time: 1 hr 11 min 4 sec) 
Heartbeat CPU 0 instructions: 68000000 cycles: 506246079 heartbeat IPC: 0.194957 cumulative IPC: 0.115733 (Simulation time: 1 hr 11 min 34 sec) 
Heartbeat CPU 0 instructions: 69000000 cycles: 510859085 heartbeat IPC: 0.216778 cumulative IPC: 0.116654 (Simulation time: 1 hr 12 min 0 sec) 
Heartbeat CPU 0 instructions: 70000001 cycles: 524769298 heartbeat IPC: 0.0718897 cumulative IPC: 0.115456 (Simulation time: 1 hr 12 min 37 sec) 
Heartbeat CPU 0 instructions: 71000002 cycles: 534032653 heartbeat IPC: 0.107952 cumulative IPC: 0.115325 (Simulation time: 1 hr 13 min 7 sec) 
Heartbeat CPU 0 instructions: 72000000 cycles: 539305083 heartbeat IPC: 0.189665 cumulative IPC: 0.116058 (Simulation time: 1 hr 13 min 32 sec) 
Heartbeat CPU 0 instructions: 73000002 cycles: 548487783 heartbeat IPC: 0.108901 cumulative IPC: 0.115937 (Simulation time: 1 hr 13 min 58 sec) 
Heartbeat CPU 0 instructions: 74000001 cycles: 560659641 heartbeat IPC: 0.0821566 cumulative IPC: 0.115197 (Simulation time: 1 hr 14 min 27 sec) 
Heartbeat CPU 0 instructions: 75000001 cycles: 565820557 heartbeat IPC: 0.193764 cumulative IPC: 0.11592 (Simulation time: 1 hr 14 min 44 sec) 
Heartbeat CPU 0 instructions: 76000000 cycles: 572302661 heartbeat IPC: 0.154271 cumulative IPC: 0.116359 (Simulation time: 1 hr 15 min 2 sec) 
Heartbeat CPU 0 instructions: 77000001 cycles: 588454516 heartbeat IPC: 0.0619125 cumulative IPC: 0.114851 (Simulation time: 1 hr 15 min 26 sec) 
Heartbeat CPU 0 instructions: 78000002 cycles: 593972950 heartbeat IPC: 0.181211 cumulative IPC: 0.115473 (Simulation time: 1 hr 15 min 39 sec) 
Heartbeat CPU 0 instructions: 79000001 cycles: 598888152 heartbeat IPC: 0.20345 cumulative IPC: 0.116201 (Simulation time: 1 hr 15 min 47 sec) 
Heartbeat CPU 0 instructions: 80000000 cycles: 611987319 heartbeat IPC: 0.0763407 cumulative IPC: 0.115341 (Simulation time: 1 hr 15 min 58 sec) 
Heartbeat CPU 0 instructions: 81000000 cycles: 619968215 heartbeat IPC: 0.125299 cumulative IPC: 0.11547 (Simulation time: 1 hr 16 min 8 sec) 
Heartbeat CPU 0 instructions: 82000000 cycles: 625247206 heartbeat IPC: 0.18943 cumulative IPC: 0.1161 (Simulation time: 1 hr 16 min 15 sec) 
Heartbeat CPU 0 instructions: 83000001 cycles: 634941316 heartbeat IPC: 0.103156 cumulative IPC: 0.115901 (Simulation time: 1 hr 16 min 25 sec) 
Heartbeat CPU 0 instructions: 84000000 cycles: 646560555 heartbeat IPC: 0.0860641 cumulative IPC: 0.11536 (Simulation time: 1 hr 16 min 33 sec) 
Heartbeat CPU 0 instructions: 85000001 cycles: 651484829 heartbeat IPC: 0.203076 cumulative IPC: 0.116028 (Simulation time: 1 hr 16 min 39 sec) 
Heartbeat CPU 0 instructions: 86000000 cycles: 659794256 heartbeat IPC: 0.120345 cumulative IPC: 0.116083 (Simulation time: 1 hr 16 min 47 sec) 
Heartbeat CPU 0 instructions: 87000000 cycles: 674269306 heartbeat IPC: 0.0690844 cumulative IPC: 0.115067 (Simulation time: 1 hr 16 min 56 sec) 
Heartbeat CPU 0 instructions: 88000000 cycles: 681216508 heartbeat IPC: 0.143943 cumulative IPC: 0.115363 (Simulation time: 1 hr 17 min 3 sec) 
Heartbeat CPU 0 instructions: 89000000 cycles: 686201282 heartbeat IPC: 0.200611 cumulative IPC: 0.115987 (Simulation time: 1 hr 17 min 10 sec) 
Heartbeat CPU 0 instructions: 90000003 cycles: 698212693 heartbeat IPC: 0.0832544 cumulative IPC: 0.11542 (Simulation time: 1 hr 17 min 19 sec) 
Heartbeat CPU 0 instructions: 91000000 cycles: 707463947 heartbeat IPC: 0.108093 cumulative IPC: 0.115323 (Simulation time: 1 hr 17 min 28 sec) 
Heartbeat CPU 0 instructions: 92000000 cycles: 712363402 heartbeat IPC: 0.204104 cumulative IPC: 0.115938 (Simulation time: 1 hr 17 min 35 sec) 
Heartbeat CPU 0 instructions: 93000002 cycles: 721579004 heartbeat IPC: 0.108512 cumulative IPC: 0.115843 (Simulation time: 1 hr 17 min 43 sec) 
Heartbeat CPU 0 instructions: 94000002 cycles: 733226056 heartbeat IPC: 0.0858586 cumulative IPC: 0.115363 (Simulation time: 1 hr 17 min 52 sec) 
Heartbeat CPU 0 instructions: 95000001 cycles: 739557398 heartbeat IPC: 0.157944 cumulative IPC: 0.11573 (Simulation time: 1 hr 17 min 59 sec) 
Heartbeat CPU 0 instructions: 96000000 cycles: 745588603 heartbeat IPC: 0.165804 cumulative IPC: 0.116138 (Simulation time: 1 hr 18 min 7 sec) 
Heartbeat CPU 0 instructions: 97000000 cycles: 760534969 heartbeat IPC: 0.0669059 cumulative IPC: 0.115164 (Simulation time: 1 hr 18 min 17 sec) 
Heartbeat CPU 0 instructions: 98000002 cycles: 765723433 heartbeat IPC: 0.192736 cumulative IPC: 0.115693 (Simulation time: 1 hr 18 min 24 sec) 
Heartbeat CPU 0 instructions: 99000002 cycles: 770949477 heartbeat IPC: 0.191349 cumulative IPC: 0.11621 (Simulation time: 1 hr 18 min 30 sec) 
Heartbeat CPU 0 instructions: 100000000 cycles: 784678670 heartbeat IPC: 0.0728373 cumulative IPC: 0.115446 (Simulation time: 1 hr 18 min 41 sec) 
Heartbeat CPU 0 instructions: 101000000 cycles: 791904139 heartbeat IPC: 0.138399 cumulative IPC: 0.115656 (Simulation time: 1 hr 18 min 50 sec) 
Heartbeat CPU 0 instructions: 102000003 cycles: 796735723 heartbeat IPC: 0.206972 cumulative IPC: 0.116214 (Simulation time: 1 hr 18 min 57 sec) 
Heartbeat CPU 0 instructions: 103000003 cycles: 808643624 heartbeat IPC: 0.0839779 cumulative IPC: 0.115736 (Simulation time: 1 hr 19 min 7 sec) 
Heartbeat CPU 0 instructions: 104000000 cycles: 820887864 heartbeat IPC: 0.0816708 cumulative IPC: 0.115225 (Simulation time: 1 hr 19 min 16 sec) 
Heartbeat CPU 0 instructions: 105000000 cycles: 826628002 heartbeat IPC: 0.174212 cumulative IPC: 0.115637 (Simulation time: 1 hr 19 min 23 sec) 
Heartbeat CPU 0 instructions: 106000000 cycles: 831589597 heartbeat IPC: 0.201548 cumulative IPC: 0.116153 (Simulation time: 1 hr 19 min 28 sec) 
Heartbeat CPU 0 instructions: 107000002 cycles: 847003373 heartbeat IPC: 0.0648772 cumulative IPC: 0.115214 (Simulation time: 1 hr 19 min 38 sec) 
Heartbeat CPU 0 instructions: 108000000 cycles: 852937562 heartbeat IPC: 0.168515 cumulative IPC: 0.115587 (Simulation time: 1 hr 19 min 45 sec) 
Heartbeat CPU 0 instructions: 109000001 cycles: 857905733 heartbeat IPC: 0.201282 cumulative IPC: 0.116086 (Simulation time: 1 hr 19 min 51 sec) 
Heartbeat CPU 0 instructions: 110000002 cycles: 867765067 heartbeat IPC: 0.101427 cumulative IPC: 0.115919 (Simulation time: 1 hr 19 min 59 sec) 
Finished CPU 0 instructions: 100000001 cycles: 862673755 cummulative IPC: 0.115919 (Simulation time: 1 hr 19 min 59 sec) 

ChampSim completed all CPUs

Region of Interest Statistics

CPU 0 cummulative IPC: 0.115919 instructions: 100000001 cycles: 862673755
LLC TOTAL     ACCESS:   18784863  HIT:    7139861  MISS:   11645002
LLC LOAD      ACCESS:    8478319  HIT:    3706315  MISS:    4772004
LLC RFO       ACCESS:     206452  HIT:     117634  MISS:      88818
LLC PREFETCH  ACCESS:    7992007  HIT:    1971092  MISS:    6020915
LLC WRITEBACK ACCESS:    2108085  HIT:    1344820  MISS:     763265
