
*** ChampSim Multicore Out-of-Order Simulator ***

Warmup Instructions: 10000000
Simulation Instructions: 100000000
Configuration: 2
Number of CPUs: 1
LLC sets: 2048
LLC ways: 16
Off-chip DRAM Channels: 1 Width: 64-bit Data Rate: 1600 MT/s

CPU 0 runs /datasets/cs240c-wi22-a00-public/data/Assignment2-gz/zeusmp_600B.trace.gz
CPU 0 L1D next line prefetcher
CPU 0 L2C IP-based stride prefetcher
Heartbeat CPU 0 instructions: 1000000 cycles: 407346 heartbeat IPC: 2.45492 cumulative IPC: 2.45492 (Simulation time: 0 hr 0 min 33 sec) 
Heartbeat CPU 0 instructions: 2000001 cycles: 814289 heartbeat IPC: 2.45735 cumulative IPC: 2.45613 (Simulation time: 0 hr 1 min 2 sec) 
Heartbeat CPU 0 instructions: 3000000 cycles: 1221757 heartbeat IPC: 2.45418 cumulative IPC: 2.45548 (Simulation time: 0 hr 1 min 32 sec) 
Heartbeat CPU 0 instructions: 4000000 cycles: 1629411 heartbeat IPC: 2.45306 cumulative IPC: 2.45487 (Simulation time: 0 hr 2 min 2 sec) 
Heartbeat CPU 0 instructions: 5000001 cycles: 2036974 heartbeat IPC: 2.45361 cumulative IPC: 2.45462 (Simulation time: 0 hr 2 min 32 sec) 
Heartbeat CPU 0 instructions: 6000000 cycles: 2444299 heartbeat IPC: 2.45504 cumulative IPC: 2.45469 (Simulation time: 0 hr 3 min 3 sec) 
Heartbeat CPU 0 instructions: 7000000 cycles: 2851776 heartbeat IPC: 2.45413 cumulative IPC: 2.45461 (Simulation time: 0 hr 3 min 32 sec) 
Heartbeat CPU 0 instructions: 8000000 cycles: 3259378 heartbeat IPC: 2.45337 cumulative IPC: 2.45446 (Simulation time: 0 hr 4 min 1 sec) 
Heartbeat CPU 0 instructions: 9000003 cycles: 3666455 heartbeat IPC: 2.45655 cumulative IPC: 2.45469 (Simulation time: 0 hr 4 min 31 sec) 
Heartbeat CPU 0 instructions: 10000001 cycles: 4073956 heartbeat IPC: 2.45398 cumulative IPC: 2.45462 (Simulation time: 0 hr 5 min 1 sec) 

Warmup complete CPU 0 instructions: 10000001 cycles: 4073956 (Simulation time: 0 hr 5 min 1 sec) 

Heartbeat CPU 0 instructions: 11000000 cycles: 4748215 heartbeat IPC: 1.48311 cumulative IPC: 1.48311 (Simulation time: 0 hr 5 min 33 sec) 
Heartbeat CPU 0 instructions: 12000000 cycles: 5421548 heartbeat IPC: 1.48515 cumulative IPC: 1.48413 (Simulation time: 0 hr 6 min 11 sec) 
Heartbeat CPU 0 instructions: 13000001 cycles: 6095028 heartbeat IPC: 1.48483 cumulative IPC: 1.48436 (Simulation time: 0 hr 6 min 50 sec) 
Heartbeat CPU 0 instructions: 14000001 cycles: 6767955 heartbeat IPC: 1.48605 cumulative IPC: 1.48478 (Simulation time: 0 hr 7 min 24 sec) 
Heartbeat CPU 0 instructions: 15000003 cycles: 7443286 heartbeat IPC: 1.48076 cumulative IPC: 1.48398 (Simulation time: 0 hr 7 min 57 sec) 
Heartbeat CPU 0 instructions: 16000000 cycles: 8161539 heartbeat IPC: 1.39226 cumulative IPC: 1.46786 (Simulation time: 0 hr 8 min 32 sec) 
Heartbeat CPU 0 instructions: 17000001 cycles: 8936914 heartbeat IPC: 1.2897 cumulative IPC: 1.43945 (Simulation time: 0 hr 9 min 4 sec) 
Heartbeat CPU 0 instructions: 18000003 cycles: 9710536 heartbeat IPC: 1.29262 cumulative IPC: 1.4193 (Simulation time: 0 hr 9 min 38 sec) 
Heartbeat CPU 0 instructions: 19000000 cycles: 10485240 heartbeat IPC: 1.29081 cumulative IPC: 1.40377 (Simulation time: 0 hr 10 min 9 sec) 
Heartbeat CPU 0 instructions: 20000000 cycles: 11257600 heartbeat IPC: 1.29473 cumulative IPC: 1.39205 (Simulation time: 0 hr 10 min 45 sec) 
Heartbeat CPU 0 instructions: 21000002 cycles: 12033413 heartbeat IPC: 1.28897 cumulative IPC: 1.382 (Simulation time: 0 hr 11 min 19 sec) 
Heartbeat CPU 0 instructions: 22000000 cycles: 12809324 heartbeat IPC: 1.28881 cumulative IPC: 1.37373 (Simulation time: 0 hr 11 min 54 sec) 
Heartbeat CPU 0 instructions: 23000000 cycles: 13576646 heartbeat IPC: 1.30323 cumulative IPC: 1.36803 (Simulation time: 0 hr 12 min 25 sec) 
Heartbeat CPU 0 instructions: 24000000 cycles: 14352550 heartbeat IPC: 1.28882 cumulative IPC: 1.36205 (Simulation time: 0 hr 12 min 59 sec) 
Heartbeat CPU 0 instructions: 25000000 cycles: 15114259 heartbeat IPC: 1.31284 cumulative IPC: 1.35866 (Simulation time: 0 hr 13 min 33 sec) 
Heartbeat CPU 0 instructions: 26000000 cycles: 15883130 heartbeat IPC: 1.30061 cumulative IPC: 1.35488 (Simulation time: 0 hr 14 min 8 sec) 
Heartbeat CPU 0 instructions: 27000003 cycles: 16650888 heartbeat IPC: 1.3025 cumulative IPC: 1.35168 (Simulation time: 0 hr 14 min 42 sec) 
Heartbeat CPU 0 instructions: 28000000 cycles: 17433195 heartbeat IPC: 1.27827 cumulative IPC: 1.34738 (Simulation time: 0 hr 15 min 14 sec) 
Heartbeat CPU 0 instructions: 29000000 cycles: 18208767 heartbeat IPC: 1.28937 cumulative IPC: 1.3442 (Simulation time: 0 hr 15 min 49 sec) 
Heartbeat CPU 0 instructions: 30000003 cycles: 18983517 heartbeat IPC: 1.29074 cumulative IPC: 1.34142 (Simulation time: 0 hr 16 min 22 sec) 
Heartbeat CPU 0 instructions: 31000002 cycles: 19764859 heartbeat IPC: 1.27985 cumulative IPC: 1.33836 (Simulation time: 0 hr 16 min 56 sec) 
Heartbeat CPU 0 instructions: 32000000 cycles: 20535768 heartbeat IPC: 1.29717 cumulative IPC: 1.33643 (Simulation time: 0 hr 17 min 29 sec) 
Heartbeat CPU 0 instructions: 33000001 cycles: 21312958 heartbeat IPC: 1.28669 cumulative IPC: 1.33418 (Simulation time: 0 hr 18 min 5 sec) 
Heartbeat CPU 0 instructions: 34000000 cycles: 22087916 heartbeat IPC: 1.29039 cumulative IPC: 1.3323 (Simulation time: 0 hr 18 min 52 sec) 
Heartbeat CPU 0 instructions: 35000000 cycles: 22864108 heartbeat IPC: 1.28834 cumulative IPC: 1.33048 (Simulation time: 0 hr 19 min 48 sec) 
Heartbeat CPU 0 instructions: 36000000 cycles: 23631734 heartbeat IPC: 1.30272 cumulative IPC: 1.32939 (Simulation time: 0 hr 20 min 38 sec) 
Heartbeat CPU 0 instructions: 37000001 cycles: 24407846 heartbeat IPC: 1.28848 cumulative IPC: 1.32783 (Simulation time: 0 hr 21 min 32 sec) 
Heartbeat CPU 0 instructions: 38000001 cycles: 25189621 heartbeat IPC: 1.27914 cumulative IPC: 1.32603 (Simulation time: 0 hr 22 min 26 sec) 
Heartbeat CPU 0 instructions: 39000002 cycles: 25966288 heartbeat IPC: 1.28755 cumulative IPC: 1.32466 (Simulation time: 0 hr 23 min 24 sec) 
Heartbeat CPU 0 instructions: 40000000 cycles: 26741653 heartbeat IPC: 1.28971 cumulative IPC: 1.32347 (Simulation time: 0 hr 24 min 12 sec) 
Heartbeat CPU 0 instructions: 41000002 cycles: 27517996 heartbeat IPC: 1.28809 cumulative IPC: 1.3223 (Simulation time: 0 hr 25 min 1 sec) 
Heartbeat CPU 0 instructions: 42000000 cycles: 28287614 heartbeat IPC: 1.29934 cumulative IPC: 1.32157 (Simulation time: 0 hr 25 min 53 sec) 
Heartbeat CPU 0 instructions: 43000002 cycles: 29061755 heartbeat IPC: 1.29176 cumulative IPC: 1.32064 (Simulation time: 0 hr 26 min 46 sec) 
Heartbeat CPU 0 instructions: 44000000 cycles: 29834273 heartbeat IPC: 1.29447 cumulative IPC: 1.31986 (Simulation time: 0 hr 27 min 40 sec) 
Heartbeat CPU 0 instructions: 45000003 cycles: 30607602 heartbeat IPC: 1.29311 cumulative IPC: 1.31908 (Simulation time: 0 hr 28 min 32 sec) 
Heartbeat CPU 0 instructions: 46000000 cycles: 31378440 heartbeat IPC: 1.29729 cumulative IPC: 1.31846 (Simulation time: 0 hr 29 min 23 sec) 
Heartbeat CPU 0 instructions: 47000001 cycles: 32160218 heartbeat IPC: 1.27914 cumulative IPC: 1.31737 (Simulation time: 0 hr 30 min 11 sec) 
Heartbeat CPU 0 instructions: 48000000 cycles: 32935279 heartbeat IPC: 1.29022 cumulative IPC: 1.31664 (Simulation time: 0 hr 31 min 6 sec) 
Heartbeat CPU 0 instructions: 49000000 cycles: 33704353 heartbeat IPC: 1.30026 cumulative IPC: 1.31622 (Simulation time: 0 hr 31 min 57 sec) 
Heartbeat CPU 0 instructions: 50000000 cycles: 34475165 heartbeat IPC: 1.29733 cumulative IPC: 1.31574 (Simulation time: 0 hr 32 min 52 sec) 
Heartbeat CPU 0 instructions: 51000001 cycles: 35254583 heartbeat IPC: 1.28301 cumulative IPC: 1.31492 (Simulation time: 0 hr 33 min 47 sec) 
Heartbeat CPU 0 instructions: 52000000 cycles: 36018834 heartbeat IPC: 1.30847 cumulative IPC: 1.31476 (Simulation time: 0 hr 34 min 42 sec) 
Heartbeat CPU 0 instructions: 53000001 cycles: 36801417 heartbeat IPC: 1.27782 cumulative IPC: 1.31388 (Simulation time: 0 hr 35 min 38 sec) 
Heartbeat CPU 0 instructions: 54000000 cycles: 37579443 heartbeat IPC: 1.2853 cumulative IPC: 1.31322 (Simulation time: 0 hr 36 min 31 sec) 
Heartbeat CPU 0 instructions: 55000001 cycles: 38350638 heartbeat IPC: 1.29669 cumulative IPC: 1.31285 (Simulation time: 0 hr 37 min 31 sec) 
Heartbeat CPU 0 instructions: 56000000 cycles: 39123445 heartbeat IPC: 1.29398 cumulative IPC: 1.31243 (Simulation time: 0 hr 38 min 27 sec) 
Heartbeat CPU 0 instructions: 57000003 cycles: 39905352 heartbeat IPC: 1.27893 cumulative IPC: 1.3117 (Simulation time: 0 hr 39 min 22 sec) 
Heartbeat CPU 0 instructions: 58000001 cycles: 40670582 heartbeat IPC: 1.30679 cumulative IPC: 1.3116 (Simulation time: 0 hr 40 min 12 sec) 
Heartbeat CPU 0 instructions: 59000000 cycles: 41445054 heartbeat IPC: 1.2912 cumulative IPC: 1.31117 (Simulation time: 0 hr 41 min 7 sec) 
Heartbeat CPU 0 instructions: 60000000 cycles: 42218765 heartbeat IPC: 1.29247 cumulative IPC: 1.31079 (Simulation time: 0 hr 41 min 59 sec) 
Heartbeat CPU 0 instructions: 61000003 cycles: 42994726 heartbeat IPC: 1.28873 cumulative IPC: 1.31035 (Simulation time: 0 hr 42 min 55 sec) 
Heartbeat CPU 0 instructions: 62000001 cycles: 43768802 heartbeat IPC: 1.29186 cumulative IPC: 1.30999 (Simulation time: 0 hr 43 min 49 sec) 
Heartbeat CPU 0 instructions: 63000000 cycles: 44545236 heartbeat IPC: 1.28794 cumulative IPC: 1.30957 (Simulation time: 0 hr 44 min 43 sec) 
Heartbeat CPU 0 instructions: 64000000 cycles: 45317792 heartbeat IPC: 1.2944 cumulative IPC: 1.30929 (Simulation time: 0 hr 45 min 36 sec) 
Heartbeat CPU 0 instructions: 65000001 cycles: 46095256 heartbeat IPC: 1.28623 cumulative IPC: 1.30886 (Simulation time: 0 hr 46 min 28 sec) 
Heartbeat CPU 0 instructions: 66000000 cycles: 46880258 heartbeat IPC: 1.27388 cumulative IPC: 1.30822 (Simulation time: 0 hr 47 min 24 sec) 
Heartbeat CPU 0 instructions: 67000001 cycles: 47662995 heartbeat IPC: 1.27757 cumulative IPC: 1.30767 (Simulation time: 0 hr 48 min 18 sec) 
Heartbeat CPU 0 instructions: 68000000 cycles: 48440827 heartbeat IPC: 1.28562 cumulative IPC: 1.30728 (Simulation time: 0 hr 49 min 11 sec) 
Heartbeat CPU 0 instructions: 69000002 cycles: 49221388 heartbeat IPC: 1.28113 cumulative IPC: 1.30683 (Simulation time: 0 hr 50 min 9 sec) 
Heartbeat CPU 0 instructions: 70000000 cycles: 49998394 heartbeat IPC: 1.28699 cumulative IPC: 1.30649 (Simulation time: 0 hr 51 min 1 sec) 
Heartbeat CPU 0 instructions: 71000001 cycles: 50778888 heartbeat IPC: 1.28124 cumulative IPC: 1.30607 (Simulation time: 0 hr 51 min 43 sec) 
Heartbeat CPU 0 instructions: 72000000 cycles: 51552242 heartbeat IPC: 1.29307 cumulative IPC: 1.30586 (Simulation time: 0 hr 52 min 33 sec) 
Heartbeat CPU 0 instructions: 73000003 cycles: 52323479 heartbeat IPC: 1.29662 cumulative IPC: 1.30571 (Simulation time: 0 hr 53 min 24 sec) 
Heartbeat CPU 0 instructions: 74000002 cycles: 53100778 heartbeat IPC: 1.2865 cumulative IPC: 1.30541 (Simulation time: 0 hr 54 min 19 sec) 
Heartbeat CPU 0 instructions: 75000003 cycles: 53876838 heartbeat IPC: 1.28856 cumulative IPC: 1.30515 (Simulation time: 0 hr 55 min 14 sec) 
Heartbeat CPU 0 instructions: 76000000 cycles: 54652891 heartbeat IPC: 1.28857 cumulative IPC: 1.30489 (Simulation time: 0 hr 56 min 4 sec) 
Heartbeat CPU 0 instructions: 77000000 cycles: 55428223 heartbeat IPC: 1.28977 cumulative IPC: 1.30466 (Simulation time: 0 hr 56 min 52 sec) 
Heartbeat CPU 0 instructions: 78000003 cycles: 56206412 heartbeat IPC: 1.28504 cumulative IPC: 1.30437 (Simulation time: 0 hr 57 min 43 sec) 
Heartbeat CPU 0 instructions: 79000000 cycles: 56979070 heartbeat IPC: 1.29423 cumulative IPC: 1.30422 (Simulation time: 0 hr 58 min 28 sec) 
Heartbeat CPU 0 instructions: 80000000 cycles: 57755540 heartbeat IPC: 1.28788 cumulative IPC: 1.30399 (Simulation time: 0 hr 59 min 15 sec) 
Heartbeat CPU 0 instructions: 81000002 cycles: 58532178 heartbeat IPC: 1.2876 cumulative IPC: 1.30375 (Simulation time: 1 hr 0 min 8 sec) 
Heartbeat CPU 0 instructions: 82000002 cycles: 59302083 heartbeat IPC: 1.29886 cumulative IPC: 1.30368 (Simulation time: 1 hr 0 min 58 sec) 
Heartbeat CPU 0 instructions: 83000001 cycles: 60069267 heartbeat IPC: 1.30347 cumulative IPC: 1.30368 (Simulation time: 1 hr 1 min 43 sec) 
Heartbeat CPU 0 instructions: 84000000 cycles: 60850122 heartbeat IPC: 1.28065 cumulative IPC: 1.30336 (Simulation time: 1 hr 2 min 24 sec) 
Heartbeat CPU 0 instructions: 85000002 cycles: 61627589 heartbeat IPC: 1.28623 cumulative IPC: 1.30313 (Simulation time: 1 hr 3 min 3 sec) 
Heartbeat CPU 0 instructions: 86000002 cycles: 62398908 heartbeat IPC: 1.29648 cumulative IPC: 1.30304 (Simulation time: 1 hr 3 min 40 sec) 
Heartbeat CPU 0 instructions: 87000000 cycles: 63177366 heartbeat IPC: 1.28459 cumulative IPC: 1.3028 (Simulation time: 1 hr 4 min 16 sec) 
Heartbeat CPU 0 instructions: 88000000 cycles: 63949919 heartbeat IPC: 1.29441 cumulative IPC: 1.30269 (Simulation time: 1 hr 4 min 54 sec) 
Heartbeat CPU 0 instructions: 89000002 cycles: 64721456 heartbeat IPC: 1.29612 cumulative IPC: 1.30261 (Simulation time: 1 hr 5 min 26 sec) 
Heartbeat CPU 0 instructions: 90000002 cycles: 65488605 heartbeat IPC: 1.30353 cumulative IPC: 1.30262 (Simulation time: 1 hr 5 min 57 sec) 
Heartbeat CPU 0 instructions: 91000001 cycles: 66265709 heartbeat IPC: 1.28683 cumulative IPC: 1.30242 (Simulation time: 1 hr 6 min 32 sec) 
Heartbeat CPU 0 instructions: 92000000 cycles: 67042272 heartbeat IPC: 1.28772 cumulative IPC: 1.30224 (Simulation time: 1 hr 7 min 6 sec) 
Heartbeat CPU 0 instructions: 93000000 cycles: 67809821 heartbeat IPC: 1.30285 cumulative IPC: 1.30225 (Simulation time: 1 hr 7 min 35 sec) 
Heartbeat CPU 0 instructions: 94000002 cycles: 68585010 heartbeat IPC: 1.29001 cumulative IPC: 1.3021 (Simulation time: 1 hr 8 min 2 sec) 
Heartbeat CPU 0 instructions: 95000001 cycles: 69357373 heartbeat IPC: 1.29473 cumulative IPC: 1.30202 (Simulation time: 1 hr 8 min 28 sec) 
Heartbeat CPU 0 instructions: 96000000 cycles: 70133296 heartbeat IPC: 1.28879 cumulative IPC: 1.30186 (Simulation time: 1 hr 8 min 53 sec) 
Heartbeat CPU 0 instructions: 97000003 cycles: 70903072 heartbeat IPC: 1.29908 cumulative IPC: 1.30183 (Simulation time: 1 hr 9 min 22 sec) 
Heartbeat CPU 0 instructions: 98000002 cycles: 71672833 heartbeat IPC: 1.2991 cumulative IPC: 1.3018 (Simulation time: 1 hr 9 min 49 sec) 
Heartbeat CPU 0 instructions: 99000000 cycles: 72453623 heartbeat IPC: 1.28075 cumulative IPC: 1.30156 (Simulation time: 1 hr 10 min 18 sec) 
Heartbeat CPU 0 instructions: 100000000 cycles: 73227063 heartbeat IPC: 1.29293 cumulative IPC: 1.30146 (Simulation time: 1 hr 10 min 46 sec) 
Heartbeat CPU 0 instructions: 101000002 cycles: 73997433 heartbeat IPC: 1.29808 cumulative IPC: 1.30142 (Simulation time: 1 hr 11 min 12 sec) 
Heartbeat CPU 0 instructions: 102000002 cycles: 74776950 heartbeat IPC: 1.28285 cumulative IPC: 1.30122 (Simulation time: 1 hr 11 min 32 sec) 
Heartbeat CPU 0 instructions: 103000001 cycles: 75555201 heartbeat IPC: 1.28493 cumulative IPC: 1.30104 (Simulation time: 1 hr 11 min 52 sec) 
Heartbeat CPU 0 instructions: 104000000 cycles: 76333375 heartbeat IPC: 1.28506 cumulative IPC: 1.30087 (Simulation time: 1 hr 12 min 11 sec) 
Heartbeat CPU 0 instructions: 105000001 cycles: 77107086 heartbeat IPC: 1.29247 cumulative IPC: 1.30078 (Simulation time: 1 hr 12 min 30 sec) 
Heartbeat CPU 0 instructions: 106000000 cycles: 77883771 heartbeat IPC: 1.28752 cumulative IPC: 1.30064 (Simulation time: 1 hr 12 min 49 sec) 
Heartbeat CPU 0 instructions: 107000000 cycles: 78658749 heartbeat IPC: 1.29036 cumulative IPC: 1.30053 (Simulation time: 1 hr 13 min 7 sec) 
Heartbeat CPU 0 instructions: 108000000 cycles: 79430693 heartbeat IPC: 1.29543 cumulative IPC: 1.30048 (Simulation time: 1 hr 13 min 25 sec) 
Heartbeat CPU 0 instructions: 109000000 cycles: 80208581 heartbeat IPC: 1.28553 cumulative IPC: 1.30033 (Simulation time: 1 hr 13 min 42 sec) 
Heartbeat CPU 0 instructions: 110000002 cycles: 80988777 heartbeat IPC: 1.28173 cumulative IPC: 1.30014 (Simulation time: 1 hr 14 min 1 sec) 
Finished CPU 0 instructions: 100000001 cycles: 76914821 cummulative IPC: 1.30014 (Simulation time: 1 hr 14 min 1 sec) 

ChampSim completed all CPUs

Region of Interest Statistics

CPU 0 cummulative IPC: 1.30014 instructions: 100000001 cycles: 76914821
LLC TOTAL     ACCESS:     382563  HIT:      15419  MISS:     367144
LLC LOAD      ACCESS:      28083  HIT:        429  MISS:      27654
LLC RFO       ACCESS:       3434  HIT:          0  MISS:       3434
LLC PREFETCH  ACCESS:     287812  HIT:       4664  MISS:     283148
LLC WRITEBACK ACCESS:      63234  HIT:      10326  MISS:      52908
