
*** ChampSim Multicore Out-of-Order Simulator ***

Warmup Instructions: 10000000
Simulation Instructions: 100000000
Configuration: 2
Number of CPUs: 1
LLC sets: 2048
LLC ways: 16
Off-chip DRAM Channels: 1 Width: 64-bit Data Rate: 1600 MT/s

CPU 0 runs /datasets/cs240c-wi22-a00-public/data/Assignment2-gz/mcf_250B.trace.gz
CPU 0 L1D next line prefetcher
CPU 0 L2C IP-based stride prefetcher
Heartbeat CPU 0 instructions: 1000000 cycles: 536644 heartbeat IPC: 1.86343 cumulative IPC: 1.86343 (Simulation time: 0 hr 0 min 53 sec) 
Heartbeat CPU 0 instructions: 2000003 cycles: 1051807 heartbeat IPC: 1.94114 cumulative IPC: 1.90149 (Simulation time: 0 hr 1 min 43 sec) 
Heartbeat CPU 0 instructions: 3000002 cycles: 1548033 heartbeat IPC: 2.01521 cumulative IPC: 1.93794 (Simulation time: 0 hr 2 min 30 sec) 
Heartbeat CPU 0 instructions: 4000000 cycles: 2058267 heartbeat IPC: 1.95988 cumulative IPC: 1.94338 (Simulation time: 0 hr 3 min 19 sec) 
Heartbeat CPU 0 instructions: 5000002 cycles: 2563416 heartbeat IPC: 1.97962 cumulative IPC: 1.95052 (Simulation time: 0 hr 4 min 15 sec) 
Heartbeat CPU 0 instructions: 6000002 cycles: 3067828 heartbeat IPC: 1.98251 cumulative IPC: 1.95578 (Simulation time: 0 hr 5 min 11 sec) 
Heartbeat CPU 0 instructions: 7000002 cycles: 3605531 heartbeat IPC: 1.85976 cumulative IPC: 1.94146 (Simulation time: 0 hr 6 min 3 sec) 
Heartbeat CPU 0 instructions: 8000000 cycles: 4119504 heartbeat IPC: 1.94562 cumulative IPC: 1.94198 (Simulation time: 0 hr 6 min 55 sec) 
Heartbeat CPU 0 instructions: 9000002 cycles: 4632684 heartbeat IPC: 1.94864 cumulative IPC: 1.94272 (Simulation time: 0 hr 7 min 51 sec) 
Heartbeat CPU 0 instructions: 10000000 cycles: 5142466 heartbeat IPC: 1.96162 cumulative IPC: 1.94459 (Simulation time: 0 hr 8 min 45 sec) 

Warmup complete CPU 0 instructions: 10000003 cycles: 5142467 (Simulation time: 0 hr 8 min 45 sec) 

Heartbeat CPU 0 instructions: 11000001 cycles: 14403287 heartbeat IPC: 0.107982 cumulative IPC: 0.107982 (Simulation time: 0 hr 10 min 2 sec) 
Heartbeat CPU 0 instructions: 12000000 cycles: 28178846 heartbeat IPC: 0.0725923 cumulative IPC: 0.0868191 (Simulation time: 0 hr 11 min 29 sec) 
Heartbeat CPU 0 instructions: 13000001 cycles: 41203947 heartbeat IPC: 0.0767749 cumulative IPC: 0.0831912 (Simulation time: 0 hr 12 min 53 sec) 
Heartbeat CPU 0 instructions: 14000003 cycles: 50679289 heartbeat IPC: 0.105537 cumulative IPC: 0.087841 (Simulation time: 0 hr 14 min 3 sec) 
Heartbeat CPU 0 instructions: 15000002 cycles: 60165902 heartbeat IPC: 0.105412 cumulative IPC: 0.0908704 (Simulation time: 0 hr 15 min 10 sec) 
Heartbeat CPU 0 instructions: 16000000 cycles: 68990461 heartbeat IPC: 0.11332 cumulative IPC: 0.0939731 (Simulation time: 0 hr 16 min 18 sec) 
Heartbeat CPU 0 instructions: 17000000 cycles: 78179912 heartbeat IPC: 0.10882 cumulative IPC: 0.0958412 (Simulation time: 0 hr 17 min 33 sec) 
Heartbeat CPU 0 instructions: 18000002 cycles: 86704371 heartbeat IPC: 0.11731 cumulative IPC: 0.098085 (Simulation time: 0 hr 18 min 42 sec) 
Heartbeat CPU 0 instructions: 19000000 cycles: 95594833 heartbeat IPC: 0.11248 cumulative IPC: 0.0994999 (Simulation time: 0 hr 19 min 54 sec) 
Heartbeat CPU 0 instructions: 20000000 cycles: 104468872 heartbeat IPC: 0.112688 cumulative IPC: 0.100678 (Simulation time: 0 hr 21 min 0 sec) 
Heartbeat CPU 0 instructions: 21000000 cycles: 113101026 heartbeat IPC: 0.115846 cumulative IPC: 0.101891 (Simulation time: 0 hr 22 min 8 sec) 
Heartbeat CPU 0 instructions: 22000000 cycles: 121500186 heartbeat IPC: 0.11906 cumulative IPC: 0.10313 (Simulation time: 0 hr 23 min 15 sec) 
Heartbeat CPU 0 instructions: 23000003 cycles: 130394799 heartbeat IPC: 0.112428 cumulative IPC: 0.10379 (Simulation time: 0 hr 24 min 20 sec) 
Heartbeat CPU 0 instructions: 24000000 cycles: 139042803 heartbeat IPC: 0.115633 cumulative IPC: 0.104555 (Simulation time: 0 hr 25 min 30 sec) 
Heartbeat CPU 0 instructions: 25000002 cycles: 148081714 heartbeat IPC: 0.110633 cumulative IPC: 0.10494 (Simulation time: 0 hr 26 min 36 sec) 
Heartbeat CPU 0 instructions: 26000000 cycles: 157227185 heartbeat IPC: 0.109344 cumulative IPC: 0.105205 (Simulation time: 0 hr 27 min 44 sec) 
Heartbeat CPU 0 instructions: 27000003 cycles: 166360650 heartbeat IPC: 0.109488 cumulative IPC: 0.105447 (Simulation time: 0 hr 28 min 51 sec) 
Heartbeat CPU 0 instructions: 28000000 cycles: 175724295 heartbeat IPC: 0.106796 cumulative IPC: 0.105521 (Simulation time: 0 hr 30 min 3 sec) 
Heartbeat CPU 0 instructions: 29000000 cycles: 185204159 heartbeat IPC: 0.105487 cumulative IPC: 0.105519 (Simulation time: 0 hr 31 min 12 sec) 
Heartbeat CPU 0 instructions: 30000001 cycles: 194330185 heartbeat IPC: 0.109577 cumulative IPC: 0.105715 (Simulation time: 0 hr 32 min 19 sec) 
Heartbeat CPU 0 instructions: 31000000 cycles: 203459648 heartbeat IPC: 0.109535 cumulative IPC: 0.105891 (Simulation time: 0 hr 33 min 26 sec) 
Heartbeat CPU 0 instructions: 32000000 cycles: 212352637 heartbeat IPC: 0.112448 cumulative IPC: 0.106172 (Simulation time: 0 hr 34 min 30 sec) 
Heartbeat CPU 0 instructions: 33000000 cycles: 221572208 heartbeat IPC: 0.108465 cumulative IPC: 0.10627 (Simulation time: 0 hr 35 min 37 sec) 
Heartbeat CPU 0 instructions: 34000000 cycles: 230798305 heartbeat IPC: 0.108388 cumulative IPC: 0.106357 (Simulation time: 0 hr 36 min 37 sec) 
Heartbeat CPU 0 instructions: 35000000 cycles: 241854425 heartbeat IPC: 0.0904476 cumulative IPC: 0.105614 (Simulation time: 0 hr 37 min 47 sec) 
Heartbeat CPU 0 instructions: 36000000 cycles: 255719629 heartbeat IPC: 0.072123 cumulative IPC: 0.10376 (Simulation time: 0 hr 39 min 13 sec) 
Heartbeat CPU 0 instructions: 37000002 cycles: 265375191 heartbeat IPC: 0.103567 cumulative IPC: 0.103753 (Simulation time: 0 hr 40 min 26 sec) 
Heartbeat CPU 0 instructions: 38000000 cycles: 274696029 heartbeat IPC: 0.107286 cumulative IPC: 0.103875 (Simulation time: 0 hr 41 min 32 sec) 
Heartbeat CPU 0 instructions: 39000000 cycles: 283891030 heartbeat IPC: 0.108755 cumulative IPC: 0.104036 (Simulation time: 0 hr 42 min 44 sec) 
Heartbeat CPU 0 instructions: 40000000 cycles: 292953868 heartbeat IPC: 0.110341 cumulative IPC: 0.104235 (Simulation time: 0 hr 43 min 57 sec) 
Heartbeat CPU 0 instructions: 41000000 cycles: 302195476 heartbeat IPC: 0.108206 cumulative IPC: 0.104358 (Simulation time: 0 hr 45 min 6 sec) 
Heartbeat CPU 0 instructions: 42000000 cycles: 311352883 heartbeat IPC: 0.109201 cumulative IPC: 0.104503 (Simulation time: 0 hr 46 min 15 sec) 
Heartbeat CPU 0 instructions: 43000000 cycles: 320303238 heartbeat IPC: 0.111727 cumulative IPC: 0.104708 (Simulation time: 0 hr 47 min 27 sec) 
Heartbeat CPU 0 instructions: 44000000 cycles: 329439439 heartbeat IPC: 0.109455 cumulative IPC: 0.104842 (Simulation time: 0 hr 48 min 37 sec) 
Heartbeat CPU 0 instructions: 45000001 cycles: 338481528 heartbeat IPC: 0.110594 cumulative IPC: 0.104998 (Simulation time: 0 hr 49 min 40 sec) 
Heartbeat CPU 0 instructions: 46000000 cycles: 347735024 heartbeat IPC: 0.108067 cumulative IPC: 0.105081 (Simulation time: 0 hr 50 min 52 sec) 
Heartbeat CPU 0 instructions: 47000002 cycles: 356884724 heartbeat IPC: 0.109293 cumulative IPC: 0.105191 (Simulation time: 0 hr 52 min 4 sec) 
Heartbeat CPU 0 instructions: 48000000 cycles: 365909083 heartbeat IPC: 0.110811 cumulative IPC: 0.105331 (Simulation time: 0 hr 53 min 13 sec) 
Heartbeat CPU 0 instructions: 49000000 cycles: 375292907 heartbeat IPC: 0.106566 cumulative IPC: 0.105363 (Simulation time: 0 hr 54 min 19 sec) 
Heartbeat CPU 0 instructions: 50000002 cycles: 384590772 heartbeat IPC: 0.107552 cumulative IPC: 0.105416 (Simulation time: 0 hr 55 min 28 sec) 
Heartbeat CPU 0 instructions: 51000002 cycles: 393726252 heartbeat IPC: 0.109463 cumulative IPC: 0.105511 (Simulation time: 0 hr 56 min 35 sec) 
Heartbeat CPU 0 instructions: 52000000 cycles: 402914490 heartbeat IPC: 0.108835 cumulative IPC: 0.105588 (Simulation time: 0 hr 57 min 38 sec) 
Heartbeat CPU 0 instructions: 53000000 cycles: 412058782 heartbeat IPC: 0.109358 cumulative IPC: 0.105673 (Simulation time: 0 hr 58 min 44 sec) 
Heartbeat CPU 0 instructions: 54000000 cycles: 421035118 heartbeat IPC: 0.111404 cumulative IPC: 0.105797 (Simulation time: 0 hr 59 min 46 sec) 
Heartbeat CPU 0 instructions: 55000001 cycles: 430074726 heartbeat IPC: 0.110624 cumulative IPC: 0.105899 (Simulation time: 1 hr 0 min 50 sec) 
Heartbeat CPU 0 instructions: 56000000 cycles: 439115847 heartbeat IPC: 0.110606 cumulative IPC: 0.105997 (Simulation time: 1 hr 1 min 47 sec) 
Heartbeat CPU 0 instructions: 57000000 cycles: 448344360 heartbeat IPC: 0.10836 cumulative IPC: 0.106046 (Simulation time: 1 hr 2 min 51 sec) 
Heartbeat CPU 0 instructions: 58000000 cycles: 457419165 heartbeat IPC: 0.110195 cumulative IPC: 0.10613 (Simulation time: 1 hr 3 min 42 sec) 
Heartbeat CPU 0 instructions: 59000001 cycles: 466563477 heartbeat IPC: 0.109358 cumulative IPC: 0.106194 (Simulation time: 1 hr 4 min 30 sec) 
Heartbeat CPU 0 instructions: 60000000 cycles: 475636214 heartbeat IPC: 0.11022 cumulative IPC: 0.106271 (Simulation time: 1 hr 5 min 20 sec) 
Heartbeat CPU 0 instructions: 61000002 cycles: 484669975 heartbeat IPC: 0.110696 cumulative IPC: 0.106355 (Simulation time: 1 hr 6 min 2 sec) 
Heartbeat CPU 0 instructions: 62000000 cycles: 492377481 heartbeat IPC: 0.129743 cumulative IPC: 0.106725 (Simulation time: 1 hr 6 min 44 sec) 
Heartbeat CPU 0 instructions: 63000001 cycles: 501063747 heartbeat IPC: 0.115124 cumulative IPC: 0.106872 (Simulation time: 1 hr 7 min 28 sec) 
Heartbeat CPU 0 instructions: 64000000 cycles: 509955310 heartbeat IPC: 0.112466 cumulative IPC: 0.10697 (Simulation time: 1 hr 8 min 5 sec) 
Heartbeat CPU 0 instructions: 65000000 cycles: 518504309 heartbeat IPC: 0.116973 cumulative IPC: 0.107137 (Simulation time: 1 hr 8 min 49 sec) 
Heartbeat CPU 0 instructions: 66000000 cycles: 527296071 heartbeat IPC: 0.113743 cumulative IPC: 0.107248 (Simulation time: 1 hr 9 min 30 sec) 
Heartbeat CPU 0 instructions: 67000001 cycles: 536290265 heartbeat IPC: 0.111183 cumulative IPC: 0.107315 (Simulation time: 1 hr 10 min 10 sec) 
Heartbeat CPU 0 instructions: 68000000 cycles: 545448783 heartbeat IPC: 0.109188 cumulative IPC: 0.107347 (Simulation time: 1 hr 10 min 50 sec) 
Heartbeat CPU 0 instructions: 69000000 cycles: 554340747 heartbeat IPC: 0.112461 cumulative IPC: 0.107429 (Simulation time: 1 hr 11 min 26 sec) 
Heartbeat CPU 0 instructions: 70000000 cycles: 563067359 heartbeat IPC: 0.114592 cumulative IPC: 0.107541 (Simulation time: 1 hr 11 min 57 sec) 
Heartbeat CPU 0 instructions: 71000000 cycles: 571786196 heartbeat IPC: 0.114694 cumulative IPC: 0.107651 (Simulation time: 1 hr 12 min 26 sec) 
Heartbeat CPU 0 instructions: 72000000 cycles: 580529212 heartbeat IPC: 0.114377 cumulative IPC: 0.107754 (Simulation time: 1 hr 12 min 55 sec) 
Heartbeat CPU 0 instructions: 73000000 cycles: 589366575 heartbeat IPC: 0.113156 cumulative IPC: 0.107835 (Simulation time: 1 hr 13 min 27 sec) 
Heartbeat CPU 0 instructions: 74000001 cycles: 598434126 heartbeat IPC: 0.110283 cumulative IPC: 0.107873 (Simulation time: 1 hr 13 min 53 sec) 
Heartbeat CPU 0 instructions: 75000002 cycles: 607153558 heartbeat IPC: 0.114686 cumulative IPC: 0.107971 (Simulation time: 1 hr 14 min 18 sec) 
Heartbeat CPU 0 instructions: 76000000 cycles: 615871917 heartbeat IPC: 0.1147 cumulative IPC: 0.108067 (Simulation time: 1 hr 14 min 41 sec) 
Heartbeat CPU 0 instructions: 77000003 cycles: 630510838 heartbeat IPC: 0.0683113 cumulative IPC: 0.107137 (Simulation time: 1 hr 15 min 7 sec) 
Heartbeat CPU 0 instructions: 78000000 cycles: 641375807 heartbeat IPC: 0.0920386 cumulative IPC: 0.106879 (Simulation time: 1 hr 15 min 27 sec) 
Heartbeat CPU 0 instructions: 79000000 cycles: 650412347 heartbeat IPC: 0.110662 cumulative IPC: 0.106932 (Simulation time: 1 hr 15 min 40 sec) 
Heartbeat CPU 0 instructions: 80000000 cycles: 659097724 heartbeat IPC: 0.115136 cumulative IPC: 0.107041 (Simulation time: 1 hr 15 min 50 sec) 
Heartbeat CPU 0 instructions: 81000001 cycles: 667780668 heartbeat IPC: 0.115168 cumulative IPC: 0.107147 (Simulation time: 1 hr 16 min 0 sec) 
Heartbeat CPU 0 instructions: 82000001 cycles: 676026068 heartbeat IPC: 0.12128 cumulative IPC: 0.107321 (Simulation time: 1 hr 16 min 8 sec) 
Heartbeat CPU 0 instructions: 83000002 cycles: 683769919 heartbeat IPC: 0.129135 cumulative IPC: 0.10757 (Simulation time: 1 hr 16 min 16 sec) 
Heartbeat CPU 0 instructions: 84000000 cycles: 691351854 heartbeat IPC: 0.131892 cumulative IPC: 0.107839 (Simulation time: 1 hr 16 min 25 sec) 
Heartbeat CPU 0 instructions: 85000000 cycles: 699278571 heartbeat IPC: 0.126156 cumulative IPC: 0.108048 (Simulation time: 1 hr 16 min 33 sec) 
Heartbeat CPU 0 instructions: 86000001 cycles: 707179201 heartbeat IPC: 0.126572 cumulative IPC: 0.108256 (Simulation time: 1 hr 16 min 41 sec) 
Heartbeat CPU 0 instructions: 87000001 cycles: 720540221 heartbeat IPC: 0.0748446 cumulative IPC: 0.107632 (Simulation time: 1 hr 16 min 51 sec) 
Heartbeat CPU 0 instructions: 88000000 cycles: 731484853 heartbeat IPC: 0.0913689 cumulative IPC: 0.107387 (Simulation time: 1 hr 17 min 0 sec) 
Heartbeat CPU 0 instructions: 89000001 cycles: 739919607 heartbeat IPC: 0.118557 cumulative IPC: 0.107516 (Simulation time: 1 hr 17 min 8 sec) 
Heartbeat CPU 0 instructions: 90000001 cycles: 746878992 heartbeat IPC: 0.143691 cumulative IPC: 0.107855 (Simulation time: 1 hr 17 min 15 sec) 
Heartbeat CPU 0 instructions: 91000000 cycles: 757100688 heartbeat IPC: 0.097831 cumulative IPC: 0.107719 (Simulation time: 1 hr 17 min 23 sec) 
Heartbeat CPU 0 instructions: 92000000 cycles: 766355893 heartbeat IPC: 0.108047 cumulative IPC: 0.107723 (Simulation time: 1 hr 17 min 30 sec) 
Heartbeat CPU 0 instructions: 93000000 cycles: 775947365 heartbeat IPC: 0.104259 cumulative IPC: 0.10768 (Simulation time: 1 hr 17 min 39 sec) 
Heartbeat CPU 0 instructions: 94000000 cycles: 785112909 heartbeat IPC: 0.109104 cumulative IPC: 0.107696 (Simulation time: 1 hr 17 min 46 sec) 
Heartbeat CPU 0 instructions: 95000000 cycles: 794202889 heartbeat IPC: 0.110011 cumulative IPC: 0.107723 (Simulation time: 1 hr 17 min 54 sec) 
Heartbeat CPU 0 instructions: 96000000 cycles: 803335634 heartbeat IPC: 0.109496 cumulative IPC: 0.107743 (Simulation time: 1 hr 18 min 1 sec) 
Heartbeat CPU 0 instructions: 97000000 cycles: 812462545 heartbeat IPC: 0.109566 cumulative IPC: 0.107764 (Simulation time: 1 hr 18 min 8 sec) 
Heartbeat CPU 0 instructions: 98000000 cycles: 821563070 heartbeat IPC: 0.109884 cumulative IPC: 0.107788 (Simulation time: 1 hr 18 min 16 sec) 
Heartbeat CPU 0 instructions: 99000000 cycles: 830589961 heartbeat IPC: 0.11078 cumulative IPC: 0.10782 (Simulation time: 1 hr 18 min 23 sec) 
Heartbeat CPU 0 instructions: 100000000 cycles: 839780522 heartbeat IPC: 0.108807 cumulative IPC: 0.107831 (Simulation time: 1 hr 18 min 31 sec) 
Heartbeat CPU 0 instructions: 101000002 cycles: 848847183 heartbeat IPC: 0.110294 cumulative IPC: 0.107858 (Simulation time: 1 hr 18 min 38 sec) 
Heartbeat CPU 0 instructions: 102000000 cycles: 858014504 heartbeat IPC: 0.109083 cumulative IPC: 0.107871 (Simulation time: 1 hr 18 min 46 sec) 
Heartbeat CPU 0 instructions: 103000000 cycles: 867281940 heartbeat IPC: 0.107905 cumulative IPC: 0.107871 (Simulation time: 1 hr 18 min 53 sec) 
Heartbeat CPU 0 instructions: 104000000 cycles: 876433487 heartbeat IPC: 0.109271 cumulative IPC: 0.107886 (Simulation time: 1 hr 19 min 0 sec) 
Heartbeat CPU 0 instructions: 105000000 cycles: 885778732 heartbeat IPC: 0.107006 cumulative IPC: 0.107877 (Simulation time: 1 hr 19 min 8 sec) 
Heartbeat CPU 0 instructions: 106000002 cycles: 895043851 heartbeat IPC: 0.107932 cumulative IPC: 0.107877 (Simulation time: 1 hr 19 min 16 sec) 
Heartbeat CPU 0 instructions: 107000003 cycles: 904209657 heartbeat IPC: 0.109101 cumulative IPC: 0.10789 (Simulation time: 1 hr 19 min 24 sec) 
Heartbeat CPU 0 instructions: 108000000 cycles: 913369685 heartbeat IPC: 0.10917 cumulative IPC: 0.107903 (Simulation time: 1 hr 19 min 31 sec) 
Heartbeat CPU 0 instructions: 109000000 cycles: 922346740 heartbeat IPC: 0.111395 cumulative IPC: 0.107937 (Simulation time: 1 hr 19 min 38 sec) 
Heartbeat CPU 0 instructions: 110000000 cycles: 931456413 heartbeat IPC: 0.109773 cumulative IPC: 0.107955 (Simulation time: 1 hr 19 min 45 sec) 
Finished CPU 0 instructions: 100000000 cycles: 926313948 cummulative IPC: 0.107955 (Simulation time: 1 hr 19 min 45 sec) 

ChampSim completed all CPUs

Region of Interest Statistics

CPU 0 cummulative IPC: 0.107955 instructions: 100000000 cycles: 926313948
LLC TOTAL     ACCESS:   26977192  HIT:   11368424  MISS:   15608768
LLC LOAD      ACCESS:   11728223  HIT:    8652691  MISS:    3075532
LLC RFO       ACCESS:      27337  HIT:      15652  MISS:      11685
LLC PREFETCH  ACCESS:   14887909  HIT:    2432487  MISS:   12455422
LLC WRITEBACK ACCESS:     333723  HIT:     267594  MISS:      66129
