
*** ChampSim Multicore Out-of-Order Simulator ***

Warmup Instructions: 10000000
Simulation Instructions: 100000000
Configuration: 2
Number of CPUs: 1
LLC sets: 2048
LLC ways: 16
Off-chip DRAM Channels: 1 Width: 64-bit Data Rate: 1600 MT/s

CPU 0 runs /datasets/cs240c-wi22-a00-public/data/Assignment2-gz/soplex_205B.trace.gz
CPU 0 L1D next line prefetcher
CPU 0 L2C IP-based stride prefetcher
Heartbeat CPU 0 instructions: 1000000 cycles: 395620 heartbeat IPC: 2.52768 cumulative IPC: 2.52768 (Simulation time: 0 hr 0 min 41 sec) 
Heartbeat CPU 0 instructions: 2000002 cycles: 927584 heartbeat IPC: 1.87983 cumulative IPC: 2.15614 (Simulation time: 0 hr 1 min 22 sec) 
Heartbeat CPU 0 instructions: 3000000 cycles: 1399660 heartbeat IPC: 2.1183 cumulative IPC: 2.14338 (Simulation time: 0 hr 2 min 12 sec) 
Heartbeat CPU 0 instructions: 4000000 cycles: 1760925 heartbeat IPC: 2.76805 cumulative IPC: 2.27153 (Simulation time: 0 hr 2 min 44 sec) 
Heartbeat CPU 0 instructions: 5000003 cycles: 2204364 heartbeat IPC: 2.25511 cumulative IPC: 2.26823 (Simulation time: 0 hr 3 min 19 sec) 
Heartbeat CPU 0 instructions: 6000003 cycles: 2624354 heartbeat IPC: 2.38101 cumulative IPC: 2.28628 (Simulation time: 0 hr 3 min 55 sec) 
Heartbeat CPU 0 instructions: 7000000 cycles: 3008789 heartbeat IPC: 2.60121 cumulative IPC: 2.32652 (Simulation time: 0 hr 4 min 25 sec) 
Heartbeat CPU 0 instructions: 8000000 cycles: 3402863 heartbeat IPC: 2.53759 cumulative IPC: 2.35096 (Simulation time: 0 hr 4 min 56 sec) 
Heartbeat CPU 0 instructions: 9000003 cycles: 3927860 heartbeat IPC: 1.90478 cumulative IPC: 2.29132 (Simulation time: 0 hr 5 min 32 sec) 
Heartbeat CPU 0 instructions: 10000000 cycles: 4412967 heartbeat IPC: 2.06139 cumulative IPC: 2.26605 (Simulation time: 0 hr 6 min 7 sec) 

Warmup complete CPU 0 instructions: 10000004 cycles: 4412969 (Simulation time: 0 hr 6 min 7 sec) 

Heartbeat CPU 0 instructions: 11000001 cycles: 7033819 heartbeat IPC: 0.381556 cumulative IPC: 0.381554 (Simulation time: 0 hr 6 min 50 sec) 
Heartbeat CPU 0 instructions: 12000000 cycles: 9297399 heartbeat IPC: 0.441778 cumulative IPC: 0.409464 (Simulation time: 0 hr 7 min 38 sec) 
Heartbeat CPU 0 instructions: 13000000 cycles: 12922562 heartbeat IPC: 0.27585 cumulative IPC: 0.352543 (Simulation time: 0 hr 8 min 24 sec) 
Heartbeat CPU 0 instructions: 14000003 cycles: 14236945 heartbeat IPC: 0.760816 cumulative IPC: 0.407167 (Simulation time: 0 hr 8 min 54 sec) 
Heartbeat CPU 0 instructions: 15000000 cycles: 15993294 heartbeat IPC: 0.569361 cumulative IPC: 0.431766 (Simulation time: 0 hr 9 min 26 sec) 
Heartbeat CPU 0 instructions: 16000000 cycles: 19452405 heartbeat IPC: 0.289092 cumulative IPC: 0.398951 (Simulation time: 0 hr 10 min 19 sec) 
Heartbeat CPU 0 instructions: 17000001 cycles: 23088507 heartbeat IPC: 0.27502 cumulative IPC: 0.374822 (Simulation time: 0 hr 11 min 15 sec) 
Heartbeat CPU 0 instructions: 18000000 cycles: 29662079 heartbeat IPC: 0.152124 cumulative IPC: 0.316843 (Simulation time: 0 hr 12 min 17 sec) 
Heartbeat CPU 0 instructions: 19000001 cycles: 34193596 heartbeat IPC: 0.220677 cumulative IPC: 0.30221 (Simulation time: 0 hr 13 min 15 sec) 
Heartbeat CPU 0 instructions: 20000000 cycles: 36429880 heartbeat IPC: 0.44717 cumulative IPC: 0.312335 (Simulation time: 0 hr 14 min 15 sec) 
Heartbeat CPU 0 instructions: 21000001 cycles: 41075592 heartbeat IPC: 0.215252 cumulative IPC: 0.300033 (Simulation time: 0 hr 15 min 11 sec) 
Heartbeat CPU 0 instructions: 22000001 cycles: 45243467 heartbeat IPC: 0.23993 cumulative IPC: 0.293898 (Simulation time: 0 hr 16 min 0 sec) 
Heartbeat CPU 0 instructions: 23000002 cycles: 48455772 heartbeat IPC: 0.311303 cumulative IPC: 0.295167 (Simulation time: 0 hr 16 min 48 sec) 
Heartbeat CPU 0 instructions: 24000000 cycles: 52220448 heartbeat IPC: 0.265627 cumulative IPC: 0.292841 (Simulation time: 0 hr 17 min 38 sec) 
Heartbeat CPU 0 instructions: 25000000 cycles: 56063627 heartbeat IPC: 0.260201 cumulative IPC: 0.290412 (Simulation time: 0 hr 18 min 26 sec) 
Heartbeat CPU 0 instructions: 26000002 cycles: 59782661 heartbeat IPC: 0.268888 cumulative IPC: 0.288967 (Simulation time: 0 hr 19 min 17 sec) 
Heartbeat CPU 0 instructions: 27000000 cycles: 62355937 heartbeat IPC: 0.388609 cumulative IPC: 0.293392 (Simulation time: 0 hr 19 min 58 sec) 
Heartbeat CPU 0 instructions: 28000000 cycles: 66003429 heartbeat IPC: 0.274161 cumulative IPC: 0.292253 (Simulation time: 0 hr 20 min 49 sec) 
Heartbeat CPU 0 instructions: 29000002 cycles: 68039242 heartbeat IPC: 0.491205 cumulative IPC: 0.298619 (Simulation time: 0 hr 21 min 38 sec) 
Heartbeat CPU 0 instructions: 30000003 cycles: 68955187 heartbeat IPC: 1.09177 cumulative IPC: 0.309875 (Simulation time: 0 hr 22 min 15 sec) 
Heartbeat CPU 0 instructions: 31000000 cycles: 70293349 heartbeat IPC: 0.747291 cumulative IPC: 0.318759 (Simulation time: 0 hr 22 min 53 sec) 
Heartbeat CPU 0 instructions: 32000000 cycles: 73435779 heartbeat IPC: 0.318225 cumulative IPC: 0.318735 (Simulation time: 0 hr 23 min 41 sec) 
Heartbeat CPU 0 instructions: 33000000 cycles: 76451196 heartbeat IPC: 0.331629 cumulative IPC: 0.319275 (Simulation time: 0 hr 24 min 31 sec) 
Heartbeat CPU 0 instructions: 34000002 cycles: 78186164 heartbeat IPC: 0.576381 cumulative IPC: 0.325321 (Simulation time: 0 hr 25 min 10 sec) 
Heartbeat CPU 0 instructions: 35000003 cycles: 80884709 heartbeat IPC: 0.37057 cumulative IPC: 0.326918 (Simulation time: 0 hr 25 min 54 sec) 
Heartbeat CPU 0 instructions: 36000000 cycles: 83496395 heartbeat IPC: 0.382893 cumulative IPC: 0.328767 (Simulation time: 0 hr 26 min 41 sec) 
Heartbeat CPU 0 instructions: 37000000 cycles: 87145700 heartbeat IPC: 0.274025 cumulative IPC: 0.326352 (Simulation time: 0 hr 27 min 32 sec) 
Heartbeat CPU 0 instructions: 38000002 cycles: 88445388 heartbeat IPC: 0.769417 cumulative IPC: 0.333205 (Simulation time: 0 hr 28 min 1 sec) 
Heartbeat CPU 0 instructions: 39000003 cycles: 90389084 heartbeat IPC: 0.514484 cumulative IPC: 0.337303 (Simulation time: 0 hr 28 min 36 sec) 
Heartbeat CPU 0 instructions: 40000000 cycles: 93774293 heartbeat IPC: 0.295402 cumulative IPC: 0.335716 (Simulation time: 0 hr 29 min 23 sec) 
Heartbeat CPU 0 instructions: 41000000 cycles: 97099417 heartbeat IPC: 0.300741 cumulative IPC: 0.334461 (Simulation time: 0 hr 30 min 10 sec) 
Heartbeat CPU 0 instructions: 42000001 cycles: 98958378 heartbeat IPC: 0.537935 cumulative IPC: 0.338462 (Simulation time: 0 hr 30 min 45 sec) 
Heartbeat CPU 0 instructions: 43000000 cycles: 102690524 heartbeat IPC: 0.267942 cumulative IPC: 0.335784 (Simulation time: 0 hr 31 min 44 sec) 
Heartbeat CPU 0 instructions: 44000000 cycles: 105054041 heartbeat IPC: 0.423098 cumulative IPC: 0.337834 (Simulation time: 0 hr 32 min 20 sec) 
Heartbeat CPU 0 instructions: 45000001 cycles: 106347125 heartbeat IPC: 0.773346 cumulative IPC: 0.343359 (Simulation time: 0 hr 32 min 50 sec) 
Heartbeat CPU 0 instructions: 46000002 cycles: 109196084 heartbeat IPC: 0.351006 cumulative IPC: 0.343567 (Simulation time: 0 hr 33 min 39 sec) 
Heartbeat CPU 0 instructions: 47000000 cycles: 112436839 heartbeat IPC: 0.308569 cumulative IPC: 0.342517 (Simulation time: 0 hr 34 min 28 sec) 
Heartbeat CPU 0 instructions: 48000000 cycles: 115218517 heartbeat IPC: 0.359495 cumulative IPC: 0.342943 (Simulation time: 0 hr 35 min 18 sec) 
Heartbeat CPU 0 instructions: 49000001 cycles: 117230477 heartbeat IPC: 0.497028 cumulative IPC: 0.345691 (Simulation time: 0 hr 35 min 55 sec) 
Heartbeat CPU 0 instructions: 50000002 cycles: 120574641 heartbeat IPC: 0.299029 cumulative IPC: 0.344348 (Simulation time: 0 hr 36 min 42 sec) 
Heartbeat CPU 0 instructions: 51000003 cycles: 123006295 heartbeat IPC: 0.411243 cumulative IPC: 0.345719 (Simulation time: 0 hr 37 min 18 sec) 
Heartbeat CPU 0 instructions: 52000000 cycles: 124289275 heartbeat IPC: 0.779433 cumulative IPC: 0.350361 (Simulation time: 0 hr 37 min 46 sec) 
Heartbeat CPU 0 instructions: 53000003 cycles: 127121957 heartbeat IPC: 0.353023 cumulative IPC: 0.350423 (Simulation time: 0 hr 38 min 27 sec) 
Heartbeat CPU 0 instructions: 54000000 cycles: 130466445 heartbeat IPC: 0.298999 cumulative IPC: 0.349058 (Simulation time: 0 hr 39 min 18 sec) 
Heartbeat CPU 0 instructions: 55000001 cycles: 133496121 heartbeat IPC: 0.330069 cumulative IPC: 0.348612 (Simulation time: 0 hr 40 min 4 sec) 
Heartbeat CPU 0 instructions: 56000000 cycles: 135381400 heartbeat IPC: 0.530425 cumulative IPC: 0.35123 (Simulation time: 0 hr 40 min 47 sec) 
Heartbeat CPU 0 instructions: 57000000 cycles: 138882789 heartbeat IPC: 0.285601 cumulative IPC: 0.349521 (Simulation time: 0 hr 41 min 34 sec) 
Heartbeat CPU 0 instructions: 58000000 cycles: 141169994 heartbeat IPC: 0.437215 cumulative IPC: 0.350987 (Simulation time: 0 hr 42 min 11 sec) 
Heartbeat CPU 0 instructions: 59000001 cycles: 142448464 heartbeat IPC: 0.782186 cumulative IPC: 0.354981 (Simulation time: 0 hr 42 min 42 sec) 
Heartbeat CPU 0 instructions: 60000000 cycles: 145282458 heartbeat IPC: 0.352859 cumulative IPC: 0.354938 (Simulation time: 0 hr 43 min 25 sec) 
Heartbeat CPU 0 instructions: 61000003 cycles: 148546136 heartbeat IPC: 0.306404 cumulative IPC: 0.353839 (Simulation time: 0 hr 44 min 18 sec) 
Heartbeat CPU 0 instructions: 62000002 cycles: 151740567 heartbeat IPC: 0.313044 cumulative IPC: 0.352955 (Simulation time: 0 hr 45 min 5 sec) 
Heartbeat CPU 0 instructions: 63000001 cycles: 153438550 heartbeat IPC: 0.588933 cumulative IPC: 0.355644 (Simulation time: 0 hr 45 min 47 sec) 
Heartbeat CPU 0 instructions: 64000000 cycles: 157275471 heartbeat IPC: 0.260625 cumulative IPC: 0.353259 (Simulation time: 0 hr 46 min 46 sec) 
Heartbeat CPU 0 instructions: 65000001 cycles: 159182523 heartbeat IPC: 0.52437 cumulative IPC: 0.355367 (Simulation time: 0 hr 47 min 18 sec) 
Heartbeat CPU 0 instructions: 66000000 cycles: 160458743 heartbeat IPC: 0.783563 cumulative IPC: 0.358869 (Simulation time: 0 hr 47 min 52 sec) 
Heartbeat CPU 0 instructions: 67000003 cycles: 163353439 heartbeat IPC: 0.34546 cumulative IPC: 0.358625 (Simulation time: 0 hr 48 min 35 sec) 
Heartbeat CPU 0 instructions: 68000000 cycles: 166700167 heartbeat IPC: 0.298798 cumulative IPC: 0.357391 (Simulation time: 0 hr 49 min 31 sec) 
Heartbeat CPU 0 instructions: 69000001 cycles: 169415540 heartbeat IPC: 0.368274 cumulative IPC: 0.35757 (Simulation time: 0 hr 50 min 19 sec) 
Heartbeat CPU 0 instructions: 70000000 cycles: 171319152 heartbeat IPC: 0.525317 cumulative IPC: 0.359483 (Simulation time: 0 hr 50 min 58 sec) 
Heartbeat CPU 0 instructions: 71000001 cycles: 174846037 heartbeat IPC: 0.283537 cumulative IPC: 0.357912 (Simulation time: 0 hr 51 min 46 sec) 
Heartbeat CPU 0 instructions: 72000000 cycles: 177109726 heartbeat IPC: 0.441756 cumulative IPC: 0.359011 (Simulation time: 0 hr 52 min 18 sec) 
Heartbeat CPU 0 instructions: 73000000 cycles: 178389657 heartbeat IPC: 0.781292 cumulative IPC: 0.362117 (Simulation time: 0 hr 52 min 45 sec) 
Heartbeat CPU 0 instructions: 74000001 cycles: 181224953 heartbeat IPC: 0.352697 cumulative IPC: 0.361966 (Simulation time: 0 hr 53 min 30 sec) 
Heartbeat CPU 0 instructions: 75000000 cycles: 184483679 heartbeat IPC: 0.306868 cumulative IPC: 0.360969 (Simulation time: 0 hr 54 min 18 sec) 
Heartbeat CPU 0 instructions: 76000000 cycles: 187649924 heartbeat IPC: 0.315832 cumulative IPC: 0.360189 (Simulation time: 0 hr 55 min 7 sec) 
Heartbeat CPU 0 instructions: 77000000 cycles: 189302540 heartbeat IPC: 0.605101 cumulative IPC: 0.362378 (Simulation time: 0 hr 55 min 44 sec) 
Heartbeat CPU 0 instructions: 78000003 cycles: 193253216 heartbeat IPC: 0.253122 cumulative IPC: 0.360093 (Simulation time: 0 hr 56 min 39 sec) 
Heartbeat CPU 0 instructions: 79000002 cycles: 195066679 heartbeat IPC: 0.551431 cumulative IPC: 0.361913 (Simulation time: 0 hr 57 min 5 sec) 
Heartbeat CPU 0 instructions: 80000000 cycles: 196345323 heartbeat IPC: 0.782077 cumulative IPC: 0.364712 (Simulation time: 0 hr 57 min 30 sec) 
Heartbeat CPU 0 instructions: 81000000 cycles: 199232345 heartbeat IPC: 0.346378 cumulative IPC: 0.36444 (Simulation time: 0 hr 58 min 7 sec) 
Heartbeat CPU 0 instructions: 82000000 cycles: 202552033 heartbeat IPC: 0.301233 cumulative IPC: 0.363381 (Simulation time: 0 hr 58 min 49 sec) 
Heartbeat CPU 0 instructions: 83000000 cycles: 205804334 heartbeat IPC: 0.307475 cumulative IPC: 0.362478 (Simulation time: 0 hr 59 min 31 sec) 
Heartbeat CPU 0 instructions: 84000000 cycles: 207589672 heartbeat IPC: 0.560118 cumulative IPC: 0.364215 (Simulation time: 1 hr 0 min 10 sec) 
Heartbeat CPU 0 instructions: 85000000 cycles: 211639829 heartbeat IPC: 0.246904 cumulative IPC: 0.361922 (Simulation time: 1 hr 1 min 4 sec) 
Heartbeat CPU 0 instructions: 86000002 cycles: 213082113 heartbeat IPC: 0.693346 cumulative IPC: 0.364213 (Simulation time: 1 hr 1 min 29 sec) 
Heartbeat CPU 0 instructions: 87000002 cycles: 214350727 heartbeat IPC: 0.788262 cumulative IPC: 0.366775 (Simulation time: 1 hr 1 min 57 sec) 
Heartbeat CPU 0 instructions: 88000000 cycles: 217232709 heartbeat IPC: 0.346983 cumulative IPC: 0.366507 (Simulation time: 1 hr 2 min 29 sec) 
Heartbeat CPU 0 instructions: 89000003 cycles: 220859217 heartbeat IPC: 0.275748 cumulative IPC: 0.364987 (Simulation time: 1 hr 3 min 8 sec) 
Heartbeat CPU 0 instructions: 90000001 cycles: 223940820 heartbeat IPC: 0.324506 cumulative IPC: 0.364418 (Simulation time: 1 hr 3 min 40 sec) 
Heartbeat CPU 0 instructions: 91000003 cycles: 225867103 heartbeat IPC: 0.519136 cumulative IPC: 0.365764 (Simulation time: 1 hr 4 min 10 sec) 
Heartbeat CPU 0 instructions: 92000000 cycles: 229728612 heartbeat IPC: 0.258965 cumulative IPC: 0.363934 (Simulation time: 1 hr 4 min 49 sec) 
Heartbeat CPU 0 instructions: 93000000 cycles: 231030077 heartbeat IPC: 0.768365 cumulative IPC: 0.366257 (Simulation time: 1 hr 5 min 6 sec) 
Heartbeat CPU 0 instructions: 94000000 cycles: 232430717 heartbeat IPC: 0.713959 cumulative IPC: 0.368392 (Simulation time: 1 hr 5 min 28 sec) 
Heartbeat CPU 0 instructions: 95000002 cycles: 235478991 heartbeat IPC: 0.328055 cumulative IPC: 0.36786 (Simulation time: 1 hr 5 min 56 sec) 
Heartbeat CPU 0 instructions: 96000000 cycles: 238593437 heartbeat IPC: 0.321084 cumulative IPC: 0.367238 (Simulation time: 1 hr 6 min 28 sec) 
Heartbeat CPU 0 instructions: 97000003 cycles: 241307817 heartbeat IPC: 0.368409 cumulative IPC: 0.367252 (Simulation time: 1 hr 6 min 55 sec) 
Heartbeat CPU 0 instructions: 98000003 cycles: 243715330 heartbeat IPC: 0.415366 cumulative IPC: 0.367736 (Simulation time: 1 hr 7 min 25 sec) 
Heartbeat CPU 0 instructions: 99000000 cycles: 247268931 heartbeat IPC: 0.281404 cumulative IPC: 0.366472 (Simulation time: 1 hr 7 min 57 sec) 
Heartbeat CPU 0 instructions: 100000000 cycles: 248569849 heartbeat IPC: 0.768688 cumulative IPC: 0.368615 (Simulation time: 1 hr 8 min 15 sec) 
Heartbeat CPU 0 instructions: 101000003 cycles: 250515064 heartbeat IPC: 0.514084 cumulative IPC: 0.369765 (Simulation time: 1 hr 8 min 35 sec) 
Heartbeat CPU 0 instructions: 102000002 cycles: 253653648 heartbeat IPC: 0.318615 cumulative IPC: 0.369121 (Simulation time: 1 hr 9 min 4 sec) 
Heartbeat CPU 0 instructions: 103000000 cycles: 255963096 heartbeat IPC: 0.433003 cumulative IPC: 0.369708 (Simulation time: 1 hr 9 min 30 sec) 
Heartbeat CPU 0 instructions: 104000000 cycles: 264829761 heartbeat IPC: 0.112782 cumulative IPC: 0.36096 (Simulation time: 1 hr 10 min 9 sec) 
Heartbeat CPU 0 instructions: 105000000 cycles: 266969123 heartbeat IPC: 0.467429 cumulative IPC: 0.361827 (Simulation time: 1 hr 10 min 39 sec) 
Heartbeat CPU 0 instructions: 106000002 cycles: 271030476 heartbeat IPC: 0.246224 cumulative IPC: 0.360066 (Simulation time: 1 hr 11 min 6 sec) 
Heartbeat CPU 0 instructions: 107000003 cycles: 275479028 heartbeat IPC: 0.224792 cumulative IPC: 0.357846 (Simulation time: 1 hr 11 min 33 sec) 
Heartbeat CPU 0 instructions: 108000000 cycles: 278935862 heartbeat IPC: 0.289281 cumulative IPC: 0.356983 (Simulation time: 1 hr 11 min 57 sec) 
Heartbeat CPU 0 instructions: 109000000 cycles: 282275306 heartbeat IPC: 0.299451 cumulative IPC: 0.356292 (Simulation time: 1 hr 12 min 19 sec) 
Heartbeat CPU 0 instructions: 110000003 cycles: 285987324 heartbeat IPC: 0.269396 cumulative IPC: 0.355146 (Simulation time: 1 hr 12 min 38 sec) 
Finished CPU 0 instructions: 100000003 cycles: 281574356 cummulative IPC: 0.355146 (Simulation time: 1 hr 12 min 38 sec) 

ChampSim completed all CPUs

Region of Interest Statistics

CPU 0 cummulative IPC: 0.355146 instructions: 100000003 cycles: 281574356
LLC TOTAL     ACCESS:    8734722  HIT:    4012827  MISS:    4721895
LLC LOAD      ACCESS:    2233453  HIT:     934159  MISS:    1299294
LLC RFO       ACCESS:     871493  HIT:     354719  MISS:     516774
LLC PREFETCH  ACCESS:    3454889  HIT:    1248780  MISS:    2206109
LLC WRITEBACK ACCESS:    2174887  HIT:    1475169  MISS:     699718
