
*** ChampSim Multicore Out-of-Order Simulator ***

Warmup Instructions: 10000000
Simulation Instructions: 100000000
Configuration: 2
Number of CPUs: 1
LLC sets: 2048
LLC ways: 16
Off-chip DRAM Channels: 1 Width: 64-bit Data Rate: 1600 MT/s

CPU 0 runs /datasets/cs240c-wi22-a00-public/data/Assignment2-gz/omnetpp_17B.trace.gz
CPU 0 L1D next line prefetcher
CPU 0 L2C IP-based stride prefetcher
Heartbeat CPU 0 instructions: 1000000 cycles: 559586 heartbeat IPC: 1.78704 cumulative IPC: 1.78704 (Simulation time: 0 hr 0 min 36 sec) 
Heartbeat CPU 0 instructions: 2000002 cycles: 1133656 heartbeat IPC: 1.74195 cumulative IPC: 1.76421 (Simulation time: 0 hr 1 min 21 sec) 
Heartbeat CPU 0 instructions: 3000001 cycles: 1769043 heartbeat IPC: 1.57384 cumulative IPC: 1.69583 (Simulation time: 0 hr 2 min 0 sec) 
Heartbeat CPU 0 instructions: 4000000 cycles: 2333832 heartbeat IPC: 1.77057 cumulative IPC: 1.71392 (Simulation time: 0 hr 2 min 43 sec) 
Heartbeat CPU 0 instructions: 5000002 cycles: 2892768 heartbeat IPC: 1.78912 cumulative IPC: 1.72845 (Simulation time: 0 hr 3 min 26 sec) 
Heartbeat CPU 0 instructions: 6000000 cycles: 3471269 heartbeat IPC: 1.7286 cumulative IPC: 1.72847 (Simulation time: 0 hr 4 min 4 sec) 
Heartbeat CPU 0 instructions: 7000000 cycles: 4035551 heartbeat IPC: 1.77216 cumulative IPC: 1.73458 (Simulation time: 0 hr 4 min 46 sec) 
Heartbeat CPU 0 instructions: 8000000 cycles: 4697285 heartbeat IPC: 1.51118 cumulative IPC: 1.70311 (Simulation time: 0 hr 5 min 23 sec) 
Heartbeat CPU 0 instructions: 9000000 cycles: 5359090 heartbeat IPC: 1.51102 cumulative IPC: 1.67939 (Simulation time: 0 hr 6 min 5 sec) 
Heartbeat CPU 0 instructions: 10000001 cycles: 6020659 heartbeat IPC: 1.51156 cumulative IPC: 1.66095 (Simulation time: 0 hr 6 min 55 sec) 

Warmup complete CPU 0 instructions: 10000001 cycles: 6020659 (Simulation time: 0 hr 6 min 55 sec) 

Heartbeat CPU 0 instructions: 11000001 cycles: 7065455 heartbeat IPC: 0.957125 cumulative IPC: 0.957125 (Simulation time: 0 hr 7 min 33 sec) 
Heartbeat CPU 0 instructions: 12000000 cycles: 8109998 heartbeat IPC: 0.957355 cumulative IPC: 0.95724 (Simulation time: 0 hr 8 min 8 sec) 
Heartbeat CPU 0 instructions: 13000000 cycles: 9179910 heartbeat IPC: 0.934656 cumulative IPC: 0.949592 (Simulation time: 0 hr 8 min 52 sec) 
Heartbeat CPU 0 instructions: 14000001 cycles: 10224161 heartbeat IPC: 0.957625 cumulative IPC: 0.951587 (Simulation time: 0 hr 9 min 44 sec) 
Heartbeat CPU 0 instructions: 15000000 cycles: 11268369 heartbeat IPC: 0.957663 cumulative IPC: 0.952796 (Simulation time: 0 hr 10 min 30 sec) 
Heartbeat CPU 0 instructions: 16000000 cycles: 12312536 heartbeat IPC: 0.957701 cumulative IPC: 0.95361 (Simulation time: 0 hr 11 min 22 sec) 
Heartbeat CPU 0 instructions: 17000000 cycles: 13358073 heartbeat IPC: 0.956446 cumulative IPC: 0.954014 (Simulation time: 0 hr 12 min 10 sec) 
Heartbeat CPU 0 instructions: 18000001 cycles: 14399397 heartbeat IPC: 0.960317 cumulative IPC: 0.954798 (Simulation time: 0 hr 12 min 53 sec) 
Heartbeat CPU 0 instructions: 19000002 cycles: 15434207 heartbeat IPC: 0.966362 cumulative IPC: 0.956069 (Simulation time: 0 hr 13 min 35 sec) 
Heartbeat CPU 0 instructions: 20000000 cycles: 18742564 heartbeat IPC: 0.302264 cumulative IPC: 0.786046 (Simulation time: 0 hr 14 min 37 sec) 
Heartbeat CPU 0 instructions: 21000000 cycles: 21234741 heartbeat IPC: 0.401256 cumulative IPC: 0.723014 (Simulation time: 0 hr 15 min 25 sec) 
Heartbeat CPU 0 instructions: 22000002 cycles: 23055626 heartbeat IPC: 0.549185 cumulative IPC: 0.704434 (Simulation time: 0 hr 16 min 11 sec) 
Heartbeat CPU 0 instructions: 23000000 cycles: 26326331 heartbeat IPC: 0.305744 cumulative IPC: 0.640215 (Simulation time: 0 hr 17 min 5 sec) 
Heartbeat CPU 0 instructions: 24000000 cycles: 29604827 heartbeat IPC: 0.305018 cumulative IPC: 0.593619 (Simulation time: 0 hr 18 min 1 sec) 
Heartbeat CPU 0 instructions: 25000001 cycles: 32242075 heartbeat IPC: 0.379184 cumulative IPC: 0.572051 (Simulation time: 0 hr 19 min 3 sec) 
Heartbeat CPU 0 instructions: 26000001 cycles: 33904036 heartbeat IPC: 0.601699 cumulative IPC: 0.573819 (Simulation time: 0 hr 19 min 51 sec) 
Heartbeat CPU 0 instructions: 27000000 cycles: 37180272 heartbeat IPC: 0.305228 cumulative IPC: 0.545578 (Simulation time: 0 hr 20 min 54 sec) 
Heartbeat CPU 0 instructions: 28000000 cycles: 40459422 heartbeat IPC: 0.304957 cumulative IPC: 0.522667 (Simulation time: 0 hr 21 min 51 sec) 
Heartbeat CPU 0 instructions: 29000000 cycles: 43277179 heartbeat IPC: 0.354892 cumulative IPC: 0.509978 (Simulation time: 0 hr 22 min 44 sec) 
Heartbeat CPU 0 instructions: 30000000 cycles: 44771382 heartbeat IPC: 0.669253 cumulative IPC: 0.516119 (Simulation time: 0 hr 23 min 24 sec) 
Heartbeat CPU 0 instructions: 31000000 cycles: 48035017 heartbeat IPC: 0.306407 cumulative IPC: 0.499829 (Simulation time: 0 hr 24 min 15 sec) 
Heartbeat CPU 0 instructions: 32000000 cycles: 51305630 heartbeat IPC: 0.305753 cumulative IPC: 0.485812 (Simulation time: 0 hr 25 min 6 sec) 
Heartbeat CPU 0 instructions: 33000001 cycles: 54301095 heartbeat IPC: 0.333838 cumulative IPC: 0.476383 (Simulation time: 0 hr 25 min 50 sec) 
Heartbeat CPU 0 instructions: 34000000 cycles: 55600536 heartbeat IPC: 0.769561 cumulative IPC: 0.484067 (Simulation time: 0 hr 26 min 37 sec) 
Heartbeat CPU 0 instructions: 35000003 cycles: 58860281 heartbeat IPC: 0.306773 cumulative IPC: 0.47313 (Simulation time: 0 hr 27 min 32 sec) 
Heartbeat CPU 0 instructions: 36000000 cycles: 62166960 heartbeat IPC: 0.302417 cumulative IPC: 0.463076 (Simulation time: 0 hr 28 min 34 sec) 
Heartbeat CPU 0 instructions: 37000001 cycles: 65056058 heartbeat IPC: 0.346129 cumulative IPC: 0.457353 (Simulation time: 0 hr 29 min 22 sec) 
Heartbeat CPU 0 instructions: 38000000 cycles: 66470056 heartbeat IPC: 0.707214 cumulative IPC: 0.463197 (Simulation time: 0 hr 30 min 3 sec) 
Heartbeat CPU 0 instructions: 39000000 cycles: 69733490 heartbeat IPC: 0.306426 cumulative IPC: 0.455167 (Simulation time: 0 hr 31 min 6 sec) 
Heartbeat CPU 0 instructions: 40000000 cycles: 72994278 heartbeat IPC: 0.306674 cumulative IPC: 0.447938 (Simulation time: 0 hr 32 min 6 sec) 
Heartbeat CPU 0 instructions: 41000002 cycles: 75782185 heartbeat IPC: 0.358693 cumulative IPC: 0.444371 (Simulation time: 0 hr 33 min 6 sec) 
Heartbeat CPU 0 instructions: 42000000 cycles: 77292448 heartbeat IPC: 0.662135 cumulative IPC: 0.448985 (Simulation time: 0 hr 33 min 49 sec) 
Heartbeat CPU 0 instructions: 43000003 cycles: 82679514 heartbeat IPC: 0.18563 cumulative IPC: 0.430479 (Simulation time: 0 hr 34 min 55 sec) 
Heartbeat CPU 0 instructions: 44000000 cycles: 83726248 heartbeat IPC: 0.95535 cumulative IPC: 0.437549 (Simulation time: 0 hr 35 min 30 sec) 
Heartbeat CPU 0 instructions: 45000003 cycles: 84769248 heartbeat IPC: 0.958776 cumulative IPC: 0.444452 (Simulation time: 0 hr 36 min 11 sec) 
Heartbeat CPU 0 instructions: 46000001 cycles: 85812315 heartbeat IPC: 0.958709 cumulative IPC: 0.451175 (Simulation time: 0 hr 36 min 51 sec) 
Heartbeat CPU 0 instructions: 47000001 cycles: 86856850 heartbeat IPC: 0.957364 cumulative IPC: 0.457716 (Simulation time: 0 hr 37 min 37 sec) 
Heartbeat CPU 0 instructions: 48000000 cycles: 87900048 heartbeat IPC: 0.95859 cumulative IPC: 0.464097 (Simulation time: 0 hr 38 min 24 sec) 
Heartbeat CPU 0 instructions: 49000000 cycles: 88941854 heartbeat IPC: 0.959872 cumulative IPC: 0.470326 (Simulation time: 0 hr 39 min 7 sec) 
Heartbeat CPU 0 instructions: 50000000 cycles: 89985118 heartbeat IPC: 0.95853 cumulative IPC: 0.476392 (Simulation time: 0 hr 39 min 54 sec) 
Heartbeat CPU 0 instructions: 51000002 cycles: 91028026 heartbeat IPC: 0.958859 cumulative IPC: 0.482311 (Simulation time: 0 hr 40 min 40 sec) 
Heartbeat CPU 0 instructions: 52000000 cycles: 92072265 heartbeat IPC: 0.957633 cumulative IPC: 0.488079 (Simulation time: 0 hr 41 min 31 sec) 
Heartbeat CPU 0 instructions: 53000001 cycles: 93114737 heartbeat IPC: 0.959259 cumulative IPC: 0.493719 (Simulation time: 0 hr 42 min 22 sec) 
Heartbeat CPU 0 instructions: 54000002 cycles: 94183089 heartbeat IPC: 0.936022 cumulative IPC: 0.499079 (Simulation time: 0 hr 43 min 8 sec) 
Heartbeat CPU 0 instructions: 55000003 cycles: 95223179 heartbeat IPC: 0.961456 cumulative IPC: 0.50447 (Simulation time: 0 hr 43 min 57 sec) 
Heartbeat CPU 0 instructions: 56000000 cycles: 97480227 heartbeat IPC: 0.443055 cumulative IPC: 0.502954 (Simulation time: 0 hr 44 min 57 sec) 
Heartbeat CPU 0 instructions: 57000003 cycles: 99514957 heartbeat IPC: 0.491467 cumulative IPC: 0.502705 (Simulation time: 0 hr 45 min 52 sec) 
Heartbeat CPU 0 instructions: 58000000 cycles: 102794932 heartbeat IPC: 0.304879 cumulative IPC: 0.496 (Simulation time: 0 hr 46 min 49 sec) 
Heartbeat CPU 0 instructions: 59000003 cycles: 106066099 heartbeat IPC: 0.305702 cumulative IPC: 0.489777 (Simulation time: 0 hr 47 min 54 sec) 
Heartbeat CPU 0 instructions: 60000000 cycles: 108477736 heartbeat IPC: 0.414655 cumulative IPC: 0.488009 (Simulation time: 0 hr 48 min 35 sec) 
Heartbeat CPU 0 instructions: 61000001 cycles: 110355102 heartbeat IPC: 0.532662 cumulative IPC: 0.488813 (Simulation time: 0 hr 49 min 27 sec) 
Heartbeat CPU 0 instructions: 62000001 cycles: 113614875 heartbeat IPC: 0.30677 cumulative IPC: 0.483297 (Simulation time: 0 hr 50 min 26 sec) 
Heartbeat CPU 0 instructions: 63000000 cycles: 116884773 heartbeat IPC: 0.30582 cumulative IPC: 0.478063 (Simulation time: 0 hr 51 min 14 sec) 
Heartbeat CPU 0 instructions: 64000000 cycles: 119459169 heartbeat IPC: 0.388441 cumulative IPC: 0.476029 (Simulation time: 0 hr 52 min 3 sec) 
Heartbeat CPU 0 instructions: 65000000 cycles: 121170165 heartbeat IPC: 0.584455 cumulative IPC: 0.47764 (Simulation time: 0 hr 52 min 53 sec) 
Heartbeat CPU 0 instructions: 66000000 cycles: 124433605 heartbeat IPC: 0.306425 cumulative IPC: 0.472921 (Simulation time: 0 hr 53 min 54 sec) 
Heartbeat CPU 0 instructions: 67000001 cycles: 127699929 heartbeat IPC: 0.306155 cumulative IPC: 0.468445 (Simulation time: 0 hr 54 min 51 sec) 
Heartbeat CPU 0 instructions: 68000000 cycles: 130462574 heartbeat IPC: 0.361972 cumulative IPC: 0.466081 (Simulation time: 0 hr 55 min 42 sec) 
Heartbeat CPU 0 instructions: 69000001 cycles: 131993023 heartbeat IPC: 0.653404 cumulative IPC: 0.468357 (Simulation time: 0 hr 56 min 25 sec) 
Heartbeat CPU 0 instructions: 70000001 cycles: 135235488 heartbeat IPC: 0.308407 cumulative IPC: 0.464343 (Simulation time: 0 hr 57 min 11 sec) 
Heartbeat CPU 0 instructions: 71000001 cycles: 138497737 heartbeat IPC: 0.306537 cumulative IPC: 0.460457 (Simulation time: 0 hr 58 min 3 sec) 
Heartbeat CPU 0 instructions: 72000000 cycles: 141276567 heartbeat IPC: 0.359863 cumulative IPC: 0.45839 (Simulation time: 0 hr 58 min 54 sec) 
Heartbeat CPU 0 instructions: 73000000 cycles: 142816645 heartbeat IPC: 0.649318 cumulative IPC: 0.46054 (Simulation time: 0 hr 59 min 40 sec) 
Heartbeat CPU 0 instructions: 74000003 cycles: 146092252 heartbeat IPC: 0.305288 cumulative IPC: 0.456909 (Simulation time: 1 hr 0 min 34 sec) 
Heartbeat CPU 0 instructions: 75000001 cycles: 149366512 heartbeat IPC: 0.305412 cumulative IPC: 0.453449 (Simulation time: 1 hr 1 min 26 sec) 
Heartbeat CPU 0 instructions: 76000000 cycles: 152028302 heartbeat IPC: 0.375687 cumulative IPC: 0.452031 (Simulation time: 1 hr 2 min 8 sec) 
Heartbeat CPU 0 instructions: 77000001 cycles: 153665351 heartbeat IPC: 0.610856 cumulative IPC: 0.453792 (Simulation time: 1 hr 2 min 47 sec) 
Heartbeat CPU 0 instructions: 78000000 cycles: 156925223 heartbeat IPC: 0.30676 cumulative IPC: 0.450616 (Simulation time: 1 hr 3 min 30 sec) 
Heartbeat CPU 0 instructions: 79000000 cycles: 160361430 heartbeat IPC: 0.291019 cumulative IPC: 0.447063 (Simulation time: 1 hr 4 min 16 sec) 
Heartbeat CPU 0 instructions: 80000000 cycles: 162212705 heartbeat IPC: 0.540168 cumulative IPC: 0.448166 (Simulation time: 1 hr 4 min 53 sec) 
Heartbeat CPU 0 instructions: 81000001 cycles: 164653174 heartbeat IPC: 0.409758 cumulative IPC: 0.447575 (Simulation time: 1 hr 5 min 29 sec) 
Heartbeat CPU 0 instructions: 82000000 cycles: 167923891 heartbeat IPC: 0.305743 cumulative IPC: 0.44471 (Simulation time: 1 hr 6 min 11 sec) 
Heartbeat CPU 0 instructions: 83000000 cycles: 171186672 heartbeat IPC: 0.306487 cumulative IPC: 0.44198 (Simulation time: 1 hr 6 min 50 sec) 
Heartbeat CPU 0 instructions: 84000000 cycles: 173002638 heartbeat IPC: 0.550671 cumulative IPC: 0.443162 (Simulation time: 1 hr 7 min 20 sec) 
Heartbeat CPU 0 instructions: 85000003 cycles: 175472042 heartbeat IPC: 0.404957 cumulative IPC: 0.442605 (Simulation time: 1 hr 7 min 50 sec) 
Heartbeat CPU 0 instructions: 86000001 cycles: 178746526 heartbeat IPC: 0.305391 cumulative IPC: 0.440004 (Simulation time: 1 hr 8 min 21 sec) 
Heartbeat CPU 0 instructions: 87000000 cycles: 182011695 heartbeat IPC: 0.306263 cumulative IPC: 0.437522 (Simulation time: 1 hr 8 min 53 sec) 
Heartbeat CPU 0 instructions: 88000000 cycles: 183690904 heartbeat IPC: 0.595518 cumulative IPC: 0.439016 (Simulation time: 1 hr 9 min 20 sec) 
Heartbeat CPU 0 instructions: 89000000 cycles: 188399145 heartbeat IPC: 0.212394 cumulative IPC: 0.433165 (Simulation time: 1 hr 9 min 52 sec) 
Heartbeat CPU 0 instructions: 90000002 cycles: 189442833 heartbeat IPC: 0.958143 cumulative IPC: 0.436152 (Simulation time: 1 hr 10 min 15 sec) 
Heartbeat CPU 0 instructions: 91000001 cycles: 190487041 heartbeat IPC: 0.957663 cumulative IPC: 0.439104 (Simulation time: 1 hr 10 min 37 sec) 
Heartbeat CPU 0 instructions: 92000000 cycles: 191530687 heartbeat IPC: 0.958178 cumulative IPC: 0.442025 (Simulation time: 1 hr 10 min 59 sec) 
Heartbeat CPU 0 instructions: 93000002 cycles: 192575027 heartbeat IPC: 0.957545 cumulative IPC: 0.444911 (Simulation time: 1 hr 11 min 19 sec) 
Heartbeat CPU 0 instructions: 94000001 cycles: 193618855 heartbeat IPC: 0.958011 cumulative IPC: 0.447765 (Simulation time: 1 hr 11 min 38 sec) 
Heartbeat CPU 0 instructions: 95000000 cycles: 194663119 heartbeat IPC: 0.957611 cumulative IPC: 0.450588 (Simulation time: 1 hr 11 min 55 sec) 
Heartbeat CPU 0 instructions: 96000000 cycles: 195707914 heartbeat IPC: 0.957126 cumulative IPC: 0.453378 (Simulation time: 1 hr 12 min 10 sec) 
Heartbeat CPU 0 instructions: 97000002 cycles: 196778882 heartbeat IPC: 0.933737 cumulative IPC: 0.456075 (Simulation time: 1 hr 12 min 27 sec) 
Heartbeat CPU 0 instructions: 98000000 cycles: 197824510 heartbeat IPC: 0.956361 cumulative IPC: 0.458802 (Simulation time: 1 hr 12 min 44 sec) 
Heartbeat CPU 0 instructions: 99000003 cycles: 198862827 heartbeat IPC: 0.9631 cumulative IPC: 0.461517 (Simulation time: 1 hr 12 min 58 sec) 
Heartbeat CPU 0 instructions: 100000000 cycles: 199899281 heartbeat IPC: 0.964825 cumulative IPC: 0.464208 (Simulation time: 1 hr 13 min 13 sec) 
Heartbeat CPU 0 instructions: 101000001 cycles: 200940773 heartbeat IPC: 0.960162 cumulative IPC: 0.466858 (Simulation time: 1 hr 13 min 30 sec) 
Heartbeat CPU 0 instructions: 102000001 cycles: 204155309 heartbeat IPC: 0.311087 cumulative IPC: 0.464331 (Simulation time: 1 hr 13 min 49 sec) 
Heartbeat CPU 0 instructions: 103000001 cycles: 205555273 heartbeat IPC: 0.714304 cumulative IPC: 0.466085 (Simulation time: 1 hr 14 min 4 sec) 
Heartbeat CPU 0 instructions: 104000000 cycles: 208496989 heartbeat IPC: 0.339937 cumulative IPC: 0.464252 (Simulation time: 1 hr 14 min 20 sec) 
Heartbeat CPU 0 instructions: 105000000 cycles: 211760157 heartbeat IPC: 0.306451 cumulative IPC: 0.461749 (Simulation time: 1 hr 14 min 34 sec) 
Heartbeat CPU 0 instructions: 106000000 cycles: 214972210 heartbeat IPC: 0.311327 cumulative IPC: 0.459437 (Simulation time: 1 hr 14 min 47 sec) 
Heartbeat CPU 0 instructions: 107000001 cycles: 216527747 heartbeat IPC: 0.642865 cumulative IPC: 0.460792 (Simulation time: 1 hr 14 min 58 sec) 
Heartbeat CPU 0 instructions: 108000000 cycles: 219318858 heartbeat IPC: 0.35828 cumulative IPC: 0.459451 (Simulation time: 1 hr 15 min 10 sec) 
Heartbeat CPU 0 instructions: 109000000 cycles: 222583697 heartbeat IPC: 0.306294 cumulative IPC: 0.457142 (Simulation time: 1 hr 15 min 22 sec) 
Heartbeat CPU 0 instructions: 110000000 cycles: 225829643 heartbeat IPC: 0.308077 cumulative IPC: 0.45494 (Simulation time: 1 hr 15 min 32 sec) 
Finished CPU 0 instructions: 100000003 cycles: 219808989 cummulative IPC: 0.45494 (Simulation time: 1 hr 15 min 32 sec) 

ChampSim completed all CPUs

Region of Interest Statistics

CPU 0 cummulative IPC: 0.45494 instructions: 100000003 cycles: 219808989
LLC TOTAL     ACCESS:    3282857  HIT:    1302164  MISS:    1980693
LLC LOAD      ACCESS:    1563279  HIT:    1229743  MISS:     333536
LLC RFO       ACCESS:       5220  HIT:       2354  MISS:       2866
LLC PREFETCH  ACCESS:    1697510  HIT:      64811  MISS:    1632699
LLC WRITEBACK ACCESS:      16848  HIT:       5256  MISS:      11592
