
*** ChampSim Multicore Out-of-Order Simulator ***

Warmup Instructions: 10000000
Simulation Instructions: 100000000
Configuration: 2
Number of CPUs: 1
LLC sets: 2048
LLC ways: 16
Off-chip DRAM Channels: 1 Width: 64-bit Data Rate: 1600 MT/s

CPU 0 runs /datasets/cs240c-wi22-a00-public/data/Assignment2-gz/milc_409B.trace.gz
CPU 0 L1D next line prefetcher
CPU 0 L2C IP-based stride prefetcher
Heartbeat CPU 0 instructions: 1000002 cycles: 407040 heartbeat IPC: 2.45677 cumulative IPC: 2.45677 (Simulation time: 0 hr 0 min 34 sec) 
Heartbeat CPU 0 instructions: 2000002 cycles: 889867 heartbeat IPC: 2.07114 cumulative IPC: 2.24753 (Simulation time: 0 hr 1 min 10 sec) 
Heartbeat CPU 0 instructions: 3000003 cycles: 1672034 heartbeat IPC: 1.2785 cumulative IPC: 1.79422 (Simulation time: 0 hr 1 min 56 sec) 
Heartbeat CPU 0 instructions: 4000000 cycles: 2454291 heartbeat IPC: 1.27835 cumulative IPC: 1.6298 (Simulation time: 0 hr 2 min 40 sec) 
Heartbeat CPU 0 instructions: 5000000 cycles: 3135412 heartbeat IPC: 1.46817 cumulative IPC: 1.59469 (Simulation time: 0 hr 3 min 21 sec) 
Heartbeat CPU 0 instructions: 6000003 cycles: 3679804 heartbeat IPC: 1.83692 cumulative IPC: 1.63052 (Simulation time: 0 hr 3 min 58 sec) 
Heartbeat CPU 0 instructions: 7000002 cycles: 4224110 heartbeat IPC: 1.8372 cumulative IPC: 1.65715 (Simulation time: 0 hr 4 min 35 sec) 
Heartbeat CPU 0 instructions: 8000000 cycles: 4768518 heartbeat IPC: 1.83685 cumulative IPC: 1.67767 (Simulation time: 0 hr 5 min 10 sec) 
Heartbeat CPU 0 instructions: 9000003 cycles: 5312844 heartbeat IPC: 1.83714 cumulative IPC: 1.69401 (Simulation time: 0 hr 5 min 46 sec) 
Heartbeat CPU 0 instructions: 10000000 cycles: 5857232 heartbeat IPC: 1.83692 cumulative IPC: 1.70729 (Simulation time: 0 hr 6 min 22 sec) 

Warmup complete CPU 0 instructions: 10000002 cycles: 5857233 (Simulation time: 0 hr 6 min 22 sec) 

Heartbeat CPU 0 instructions: 11000002 cycles: 7525100 heartbeat IPC: 0.599569 cumulative IPC: 0.599568 (Simulation time: 0 hr 6 min 58 sec) 
Heartbeat CPU 0 instructions: 12000000 cycles: 9181937 heartbeat IPC: 0.603558 cumulative IPC: 0.601557 (Simulation time: 0 hr 7 min 42 sec) 
Heartbeat CPU 0 instructions: 13000003 cycles: 10838528 heartbeat IPC: 0.603651 cumulative IPC: 0.602253 (Simulation time: 0 hr 8 min 23 sec) 
Heartbeat CPU 0 instructions: 14000002 cycles: 12493989 heartbeat IPC: 0.604061 cumulative IPC: 0.602704 (Simulation time: 0 hr 9 min 5 sec) 
Heartbeat CPU 0 instructions: 15000001 cycles: 14150296 heartbeat IPC: 0.603752 cumulative IPC: 0.602913 (Simulation time: 0 hr 9 min 48 sec) 
Heartbeat CPU 0 instructions: 16000000 cycles: 15810905 heartbeat IPC: 0.602188 cumulative IPC: 0.602792 (Simulation time: 0 hr 10 min 29 sec) 
Heartbeat CPU 0 instructions: 17000002 cycles: 17464955 heartbeat IPC: 0.604578 cumulative IPC: 0.603047 (Simulation time: 0 hr 11 min 12 sec) 
Heartbeat CPU 0 instructions: 18000000 cycles: 19120423 heartbeat IPC: 0.604058 cumulative IPC: 0.603173 (Simulation time: 0 hr 11 min 54 sec) 
Heartbeat CPU 0 instructions: 19000003 cycles: 20780234 heartbeat IPC: 0.60248 cumulative IPC: 0.603096 (Simulation time: 0 hr 12 min 42 sec) 
Heartbeat CPU 0 instructions: 20000000 cycles: 22436297 heartbeat IPC: 0.60384 cumulative IPC: 0.60317 (Simulation time: 0 hr 13 min 28 sec) 
Heartbeat CPU 0 instructions: 21000001 cycles: 24086467 heartbeat IPC: 0.605999 cumulative IPC: 0.603426 (Simulation time: 0 hr 14 min 11 sec) 
Heartbeat CPU 0 instructions: 22000002 cycles: 25742910 heartbeat IPC: 0.603704 cumulative IPC: 0.603449 (Simulation time: 0 hr 14 min 55 sec) 
Heartbeat CPU 0 instructions: 23000002 cycles: 27403221 heartbeat IPC: 0.602297 cumulative IPC: 0.603361 (Simulation time: 0 hr 15 min 39 sec) 
Heartbeat CPU 0 instructions: 24000000 cycles: 29055505 heartbeat IPC: 0.605222 cumulative IPC: 0.603493 (Simulation time: 0 hr 16 min 25 sec) 
Heartbeat CPU 0 instructions: 25000002 cycles: 30715777 heartbeat IPC: 0.602312 cumulative IPC: 0.603414 (Simulation time: 0 hr 17 min 7 sec) 
Heartbeat CPU 0 instructions: 26000000 cycles: 32370133 heartbeat IPC: 0.604464 cumulative IPC: 0.60348 (Simulation time: 0 hr 17 min 48 sec) 
Heartbeat CPU 0 instructions: 27000002 cycles: 34024942 heartbeat IPC: 0.604301 cumulative IPC: 0.603528 (Simulation time: 0 hr 18 min 30 sec) 
Heartbeat CPU 0 instructions: 28000000 cycles: 35679466 heartbeat IPC: 0.604402 cumulative IPC: 0.603576 (Simulation time: 0 hr 19 min 13 sec) 
Heartbeat CPU 0 instructions: 29000002 cycles: 37330242 heartbeat IPC: 0.605777 cumulative IPC: 0.603692 (Simulation time: 0 hr 19 min 50 sec) 
Heartbeat CPU 0 instructions: 30000000 cycles: 38979825 heartbeat IPC: 0.606213 cumulative IPC: 0.603817 (Simulation time: 0 hr 20 min 30 sec) 
Heartbeat CPU 0 instructions: 31000000 cycles: 40635132 heartbeat IPC: 0.604118 cumulative IPC: 0.603832 (Simulation time: 0 hr 21 min 11 sec) 
Heartbeat CPU 0 instructions: 32000000 cycles: 42293973 heartbeat IPC: 0.602831 cumulative IPC: 0.603786 (Simulation time: 0 hr 21 min 51 sec) 
Heartbeat CPU 0 instructions: 33000000 cycles: 43950668 heartbeat IPC: 0.603611 cumulative IPC: 0.603779 (Simulation time: 0 hr 22 min 39 sec) 
Heartbeat CPU 0 instructions: 34000000 cycles: 45605467 heartbeat IPC: 0.604303 cumulative IPC: 0.6038 (Simulation time: 0 hr 23 min 25 sec) 
Heartbeat CPU 0 instructions: 35000002 cycles: 47258648 heartbeat IPC: 0.604896 cumulative IPC: 0.603844 (Simulation time: 0 hr 24 min 9 sec) 
Heartbeat CPU 0 instructions: 36000000 cycles: 48910981 heartbeat IPC: 0.605204 cumulative IPC: 0.603896 (Simulation time: 0 hr 24 min 49 sec) 
Heartbeat CPU 0 instructions: 37000000 cycles: 50564092 heartbeat IPC: 0.60492 cumulative IPC: 0.603934 (Simulation time: 0 hr 25 min 33 sec) 
Heartbeat CPU 0 instructions: 38000002 cycles: 52215183 heartbeat IPC: 0.605661 cumulative IPC: 0.603996 (Simulation time: 0 hr 26 min 13 sec) 
Heartbeat CPU 0 instructions: 39000001 cycles: 53870789 heartbeat IPC: 0.604008 cumulative IPC: 0.603996 (Simulation time: 0 hr 26 min 56 sec) 
Heartbeat CPU 0 instructions: 40000000 cycles: 55525250 heartbeat IPC: 0.604426 cumulative IPC: 0.60401 (Simulation time: 0 hr 27 min 39 sec) 
Heartbeat CPU 0 instructions: 41000002 cycles: 57177414 heartbeat IPC: 0.605268 cumulative IPC: 0.604051 (Simulation time: 0 hr 28 min 22 sec) 
Heartbeat CPU 0 instructions: 42000001 cycles: 58833052 heartbeat IPC: 0.603996 cumulative IPC: 0.604049 (Simulation time: 0 hr 29 min 3 sec) 
Heartbeat CPU 0 instructions: 43000000 cycles: 60484148 heartbeat IPC: 0.605658 cumulative IPC: 0.604098 (Simulation time: 0 hr 29 min 45 sec) 
Heartbeat CPU 0 instructions: 44000000 cycles: 62144033 heartbeat IPC: 0.602451 cumulative IPC: 0.604049 (Simulation time: 0 hr 30 min 24 sec) 
Heartbeat CPU 0 instructions: 45000000 cycles: 63796273 heartbeat IPC: 0.605239 cumulative IPC: 0.604083 (Simulation time: 0 hr 31 min 3 sec) 
Heartbeat CPU 0 instructions: 46000000 cycles: 65449673 heartbeat IPC: 0.604814 cumulative IPC: 0.604103 (Simulation time: 0 hr 31 min 45 sec) 
Heartbeat CPU 0 instructions: 47000002 cycles: 67103878 heartbeat IPC: 0.604521 cumulative IPC: 0.604115 (Simulation time: 0 hr 32 min 27 sec) 
Heartbeat CPU 0 instructions: 48000000 cycles: 68759952 heartbeat IPC: 0.603837 cumulative IPC: 0.604107 (Simulation time: 0 hr 33 min 8 sec) 
Heartbeat CPU 0 instructions: 49000000 cycles: 70415371 heartbeat IPC: 0.604077 cumulative IPC: 0.604107 (Simulation time: 0 hr 33 min 45 sec) 
Heartbeat CPU 0 instructions: 50000001 cycles: 72070479 heartbeat IPC: 0.604191 cumulative IPC: 0.604109 (Simulation time: 0 hr 34 min 27 sec) 
Heartbeat CPU 0 instructions: 51000002 cycles: 73727027 heartbeat IPC: 0.603666 cumulative IPC: 0.604098 (Simulation time: 0 hr 35 min 8 sec) 
Heartbeat CPU 0 instructions: 52000000 cycles: 75637921 heartbeat IPC: 0.523314 cumulative IPC: 0.601886 (Simulation time: 0 hr 35 min 50 sec) 
Heartbeat CPU 0 instructions: 53000001 cycles: 77783298 heartbeat IPC: 0.466119 cumulative IPC: 0.597836 (Simulation time: 0 hr 36 min 45 sec) 
Heartbeat CPU 0 instructions: 54000001 cycles: 79847286 heartbeat IPC: 0.484499 cumulative IPC: 0.594675 (Simulation time: 0 hr 37 min 30 sec) 
Heartbeat CPU 0 instructions: 55000002 cycles: 81900610 heartbeat IPC: 0.487016 cumulative IPC: 0.591767 (Simulation time: 0 hr 38 min 13 sec) 
Heartbeat CPU 0 instructions: 56000000 cycles: 84051406 heartbeat IPC: 0.464943 cumulative IPC: 0.588279 (Simulation time: 0 hr 39 min 0 sec) 
Heartbeat CPU 0 instructions: 57000000 cycles: 86209219 heartbeat IPC: 0.463432 cumulative IPC: 0.584926 (Simulation time: 0 hr 39 min 49 sec) 
Heartbeat CPU 0 instructions: 58000002 cycles: 88289665 heartbeat IPC: 0.480667 cumulative IPC: 0.582295 (Simulation time: 0 hr 40 min 39 sec) 
Heartbeat CPU 0 instructions: 59000001 cycles: 90052534 heartbeat IPC: 0.567257 cumulative IPC: 0.58198 (Simulation time: 0 hr 41 min 25 sec) 
Heartbeat CPU 0 instructions: 60000000 cycles: 91706694 heartbeat IPC: 0.604536 cumulative IPC: 0.582415 (Simulation time: 0 hr 42 min 8 sec) 
Heartbeat CPU 0 instructions: 61000000 cycles: 93370723 heartbeat IPC: 0.600951 cumulative IPC: 0.582767 (Simulation time: 0 hr 42 min 58 sec) 
Heartbeat CPU 0 instructions: 62000000 cycles: 95037428 heartbeat IPC: 0.599986 cumulative IPC: 0.583089 (Simulation time: 0 hr 43 min 39 sec) 
Heartbeat CPU 0 instructions: 63000003 cycles: 96702584 heartbeat IPC: 0.600546 cumulative IPC: 0.583409 (Simulation time: 0 hr 44 min 19 sec) 
Heartbeat CPU 0 instructions: 64000000 cycles: 98369140 heartbeat IPC: 0.600038 cumulative IPC: 0.583709 (Simulation time: 0 hr 45 min 1 sec) 
Heartbeat CPU 0 instructions: 65000002 cycles: 100036449 heartbeat IPC: 0.59977 cumulative IPC: 0.583993 (Simulation time: 0 hr 45 min 44 sec) 
Heartbeat CPU 0 instructions: 66000002 cycles: 101699678 heartbeat IPC: 0.60124 cumulative IPC: 0.584292 (Simulation time: 0 hr 46 min 30 sec) 
Heartbeat CPU 0 instructions: 67000001 cycles: 103364954 heartbeat IPC: 0.6005 cumulative IPC: 0.584569 (Simulation time: 0 hr 47 min 9 sec) 
Heartbeat CPU 0 instructions: 68000000 cycles: 105031231 heartbeat IPC: 0.60014 cumulative IPC: 0.584831 (Simulation time: 0 hr 47 min 50 sec) 
Heartbeat CPU 0 instructions: 69000000 cycles: 106695579 heartbeat IPC: 0.600836 cumulative IPC: 0.585095 (Simulation time: 0 hr 48 min 33 sec) 
Heartbeat CPU 0 instructions: 70000000 cycles: 108364023 heartbeat IPC: 0.599361 cumulative IPC: 0.585327 (Simulation time: 0 hr 49 min 14 sec) 
Heartbeat CPU 0 instructions: 71000002 cycles: 110026892 heartbeat IPC: 0.601371 cumulative IPC: 0.585583 (Simulation time: 0 hr 49 min 59 sec) 
Heartbeat CPU 0 instructions: 72000000 cycles: 111692398 heartbeat IPC: 0.600417 cumulative IPC: 0.585817 (Simulation time: 0 hr 50 min 41 sec) 
Heartbeat CPU 0 instructions: 73000003 cycles: 113356330 heartbeat IPC: 0.600988 cumulative IPC: 0.586051 (Simulation time: 0 hr 51 min 26 sec) 
Heartbeat CPU 0 instructions: 74000002 cycles: 115025033 heartbeat IPC: 0.599267 cumulative IPC: 0.586253 (Simulation time: 0 hr 52 min 3 sec) 
Heartbeat CPU 0 instructions: 75000003 cycles: 116688750 heartbeat IPC: 0.601064 cumulative IPC: 0.586476 (Simulation time: 0 hr 52 min 50 sec) 
Heartbeat CPU 0 instructions: 76000000 cycles: 118356170 heartbeat IPC: 0.599727 cumulative IPC: 0.586672 (Simulation time: 0 hr 53 min 34 sec) 
Heartbeat CPU 0 instructions: 77000003 cycles: 120023720 heartbeat IPC: 0.599684 cumulative IPC: 0.586862 (Simulation time: 0 hr 54 min 15 sec) 
Heartbeat CPU 0 instructions: 78000000 cycles: 121687117 heartbeat IPC: 0.601178 cumulative IPC: 0.587068 (Simulation time: 0 hr 55 min 0 sec) 
Heartbeat CPU 0 instructions: 79000000 cycles: 123353266 heartbeat IPC: 0.600186 cumulative IPC: 0.587254 (Simulation time: 0 hr 55 min 42 sec) 
Heartbeat CPU 0 instructions: 80000000 cycles: 125016308 heartbeat IPC: 0.601308 cumulative IPC: 0.58745 (Simulation time: 0 hr 56 min 21 sec) 
Heartbeat CPU 0 instructions: 81000000 cycles: 126683875 heartbeat IPC: 0.599676 cumulative IPC: 0.587619 (Simulation time: 0 hr 56 min 57 sec) 
Heartbeat CPU 0 instructions: 82000002 cycles: 128344794 heartbeat IPC: 0.602078 cumulative IPC: 0.587815 (Simulation time: 0 hr 57 min 34 sec) 
Heartbeat CPU 0 instructions: 83000003 cycles: 130003718 heartbeat IPC: 0.602801 cumulative IPC: 0.588015 (Simulation time: 0 hr 58 min 10 sec) 
Heartbeat CPU 0 instructions: 84000000 cycles: 131663609 heartbeat IPC: 0.602447 cumulative IPC: 0.588205 (Simulation time: 0 hr 58 min 49 sec) 
Heartbeat CPU 0 instructions: 85000001 cycles: 133322539 heartbeat IPC: 0.602799 cumulative IPC: 0.588395 (Simulation time: 0 hr 59 min 24 sec) 
Heartbeat CPU 0 instructions: 86000002 cycles: 134985743 heartbeat IPC: 0.60125 cumulative IPC: 0.588561 (Simulation time: 1 hr 0 min 0 sec) 
Heartbeat CPU 0 instructions: 87000003 cycles: 136650112 heartbeat IPC: 0.600829 cumulative IPC: 0.588717 (Simulation time: 1 hr 0 min 37 sec) 
Heartbeat CPU 0 instructions: 88000000 cycles: 138314346 heartbeat IPC: 0.600875 cumulative IPC: 0.58887 (Simulation time: 1 hr 1 min 9 sec) 
Heartbeat CPU 0 instructions: 89000001 cycles: 139976045 heartbeat IPC: 0.601794 cumulative IPC: 0.58903 (Simulation time: 1 hr 1 min 48 sec) 
Heartbeat CPU 0 instructions: 90000002 cycles: 141640858 heartbeat IPC: 0.600669 cumulative IPC: 0.589173 (Simulation time: 1 hr 2 min 24 sec) 
Heartbeat CPU 0 instructions: 91000000 cycles: 143299469 heartbeat IPC: 0.602913 cumulative IPC: 0.589338 (Simulation time: 1 hr 2 min 55 sec) 
Heartbeat CPU 0 instructions: 92000000 cycles: 144960385 heartbeat IPC: 0.602077 cumulative IPC: 0.589491 (Simulation time: 1 hr 3 min 23 sec) 
Heartbeat CPU 0 instructions: 93000003 cycles: 146621989 heartbeat IPC: 0.60183 cumulative IPC: 0.589636 (Simulation time: 1 hr 3 min 53 sec) 
Heartbeat CPU 0 instructions: 94000002 cycles: 148283209 heartbeat IPC: 0.601967 cumulative IPC: 0.58978 (Simulation time: 1 hr 4 min 19 sec) 
Heartbeat CPU 0 instructions: 95000003 cycles: 149943556 heartbeat IPC: 0.602284 cumulative IPC: 0.589924 (Simulation time: 1 hr 4 min 45 sec) 
Heartbeat CPU 0 instructions: 96000000 cycles: 151601952 heartbeat IPC: 0.602991 cumulative IPC: 0.590073 (Simulation time: 1 hr 5 min 16 sec) 
Heartbeat CPU 0 instructions: 97000001 cycles: 153266372 heartbeat IPC: 0.60081 cumulative IPC: 0.590194 (Simulation time: 1 hr 5 min 47 sec) 
Heartbeat CPU 0 instructions: 98000002 cycles: 154927824 heartbeat IPC: 0.601884 cumulative IPC: 0.590324 (Simulation time: 1 hr 6 min 11 sec) 
Heartbeat CPU 0 instructions: 99000003 cycles: 156590443 heartbeat IPC: 0.601461 cumulative IPC: 0.590447 (Simulation time: 1 hr 6 min 36 sec) 
Heartbeat CPU 0 instructions: 100000000 cycles: 158249834 heartbeat IPC: 0.602629 cumulative IPC: 0.59058 (Simulation time: 1 hr 7 min 5 sec) 
Heartbeat CPU 0 instructions: 101000001 cycles: 159906585 heartbeat IPC: 0.603592 cumulative IPC: 0.59072 (Simulation time: 1 hr 7 min 30 sec) 
Heartbeat CPU 0 instructions: 102000002 cycles: 161568613 heartbeat IPC: 0.601675 cumulative IPC: 0.590837 (Simulation time: 1 hr 7 min 54 sec) 
Heartbeat CPU 0 instructions: 103000000 cycles: 163229437 heartbeat IPC: 0.60211 cumulative IPC: 0.590956 (Simulation time: 1 hr 8 min 18 sec) 
Heartbeat CPU 0 instructions: 104000000 cycles: 164886662 heartbeat IPC: 0.603418 cumulative IPC: 0.591086 (Simulation time: 1 hr 8 min 42 sec) 
Heartbeat CPU 0 instructions: 105000003 cycles: 166908975 heartbeat IPC: 0.494485 cumulative IPC: 0.589873 (Simulation time: 1 hr 9 min 6 sec) 
Heartbeat CPU 0 instructions: 106000003 cycles: 171048291 heartbeat IPC: 0.241586 cumulative IPC: 0.581145 (Simulation time: 1 hr 9 min 43 sec) 
Heartbeat CPU 0 instructions: 107000000 cycles: 172836556 heartbeat IPC: 0.5592 cumulative IPC: 0.58091 (Simulation time: 1 hr 10 min 4 sec) 
Heartbeat CPU 0 instructions: 108000000 cycles: 174611111 heartbeat IPC: 0.563522 cumulative IPC: 0.580727 (Simulation time: 1 hr 10 min 26 sec) 
Heartbeat CPU 0 instructions: 109000001 cycles: 176393516 heartbeat IPC: 0.56104 cumulative IPC: 0.580522 (Simulation time: 1 hr 10 min 44 sec) 
Heartbeat CPU 0 instructions: 110000001 cycles: 178170943 heartbeat IPC: 0.562611 cumulative IPC: 0.580337 (Simulation time: 1 hr 11 min 4 sec) 
Finished CPU 0 instructions: 100000003 cycles: 172313711 cummulative IPC: 0.580337 (Simulation time: 1 hr 11 min 4 sec) 

ChampSim completed all CPUs

Region of Interest Statistics

CPU 0 cummulative IPC: 0.580337 instructions: 100000003 cycles: 172313711
LLC TOTAL     ACCESS:    3300884  HIT:     142570  MISS:    3158314
LLC LOAD      ACCESS:     972362  HIT:       2635  MISS:     969727
LLC RFO       ACCESS:     136847  HIT:          4  MISS:     136843
LLC PREFETCH  ACCESS:    1333586  HIT:      25279  MISS:    1308307
LLC WRITEBACK ACCESS:     858089  HIT:     114652  MISS:     743437
