
*** ChampSim Multicore Out-of-Order Simulator ***

Warmup Instructions: 10000000
Simulation Instructions: 100000000
Configuration: 2
Number of CPUs: 1
LLC sets: 2048
LLC ways: 16
Off-chip DRAM Channels: 1 Width: 64-bit Data Rate: 1600 MT/s

CPU 0 runs /datasets/cs240c-wi22-a00-public/data/Assignment2-gz/GemsFDTD_109B.trace.gz
CPU 0 L1D next line prefetcher
CPU 0 L2C IP-based stride prefetcher
Heartbeat CPU 0 instructions: 1000002 cycles: 579772 heartbeat IPC: 1.72482 cumulative IPC: 1.72482 (Simulation time: 0 hr 0 min 46 sec) 
Heartbeat CPU 0 instructions: 2000001 cycles: 1159546 heartbeat IPC: 1.72481 cumulative IPC: 1.72481 (Simulation time: 0 hr 1 min 27 sec) 
Heartbeat CPU 0 instructions: 3000000 cycles: 1738734 heartbeat IPC: 1.72655 cumulative IPC: 1.72539 (Simulation time: 0 hr 2 min 11 sec) 
Heartbeat CPU 0 instructions: 4000000 cycles: 2317739 heartbeat IPC: 1.7271 cumulative IPC: 1.72582 (Simulation time: 0 hr 2 min 55 sec) 
Heartbeat CPU 0 instructions: 5000000 cycles: 2897590 heartbeat IPC: 1.72458 cumulative IPC: 1.72557 (Simulation time: 0 hr 3 min 42 sec) 
Heartbeat CPU 0 instructions: 6000002 cycles: 3478306 heartbeat IPC: 1.72202 cumulative IPC: 1.72498 (Simulation time: 0 hr 4 min 32 sec) 
Heartbeat CPU 0 instructions: 7000001 cycles: 4058971 heartbeat IPC: 1.72216 cumulative IPC: 1.72458 (Simulation time: 0 hr 5 min 17 sec) 
Heartbeat CPU 0 instructions: 8000000 cycles: 4639157 heartbeat IPC: 1.72358 cumulative IPC: 1.72445 (Simulation time: 0 hr 6 min 3 sec) 
Heartbeat CPU 0 instructions: 9000002 cycles: 5219314 heartbeat IPC: 1.72367 cumulative IPC: 1.72436 (Simulation time: 0 hr 6 min 52 sec) 
Heartbeat CPU 0 instructions: 10000001 cycles: 5799492 heartbeat IPC: 1.72361 cumulative IPC: 1.72429 (Simulation time: 0 hr 7 min 38 sec) 

Warmup complete CPU 0 instructions: 10000001 cycles: 5799492 (Simulation time: 0 hr 7 min 38 sec) 

Heartbeat CPU 0 instructions: 11000002 cycles: 6850804 heartbeat IPC: 0.951193 cumulative IPC: 0.951193 (Simulation time: 0 hr 8 min 29 sec) 
Heartbeat CPU 0 instructions: 12000000 cycles: 7902454 heartbeat IPC: 0.950885 cumulative IPC: 0.951039 (Simulation time: 0 hr 9 min 20 sec) 
Heartbeat CPU 0 instructions: 13000001 cycles: 8986107 heartbeat IPC: 0.922806 cumulative IPC: 0.941438 (Simulation time: 0 hr 10 min 9 sec) 
Heartbeat CPU 0 instructions: 14000002 cycles: 10050235 heartbeat IPC: 0.939737 cumulative IPC: 0.941012 (Simulation time: 0 hr 11 min 2 sec) 
Heartbeat CPU 0 instructions: 15000000 cycles: 11121738 heartbeat IPC: 0.933267 cumulative IPC: 0.939453 (Simulation time: 0 hr 11 min 49 sec) 
Heartbeat CPU 0 instructions: 16000000 cycles: 12184096 heartbeat IPC: 0.941302 cumulative IPC: 0.939761 (Simulation time: 0 hr 12 min 36 sec) 
Heartbeat CPU 0 instructions: 17000000 cycles: 13271121 heartbeat IPC: 0.919942 cumulative IPC: 0.936877 (Simulation time: 0 hr 13 min 27 sec) 
Heartbeat CPU 0 instructions: 18000003 cycles: 14321787 heartbeat IPC: 0.95178 cumulative IPC: 0.938715 (Simulation time: 0 hr 14 min 12 sec) 
Heartbeat CPU 0 instructions: 19000001 cycles: 15393913 heartbeat IPC: 0.932724 cumulative IPC: 0.938045 (Simulation time: 0 hr 15 min 2 sec) 
Heartbeat CPU 0 instructions: 20000000 cycles: 16554832 heartbeat IPC: 0.861386 cumulative IPC: 0.929771 (Simulation time: 0 hr 15 min 46 sec) 
Heartbeat CPU 0 instructions: 21000001 cycles: 17829189 heartbeat IPC: 0.78471 cumulative IPC: 0.914404 (Simulation time: 0 hr 16 min 34 sec) 
Heartbeat CPU 0 instructions: 22000001 cycles: 21323137 heartbeat IPC: 0.286209 cumulative IPC: 0.773014 (Simulation time: 0 hr 17 min 33 sec) 
Heartbeat CPU 0 instructions: 23000001 cycles: 22588708 heartbeat IPC: 0.790157 cumulative IPC: 0.774307 (Simulation time: 0 hr 18 min 30 sec) 
Heartbeat CPU 0 instructions: 24000000 cycles: 26266495 heartbeat IPC: 0.271902 cumulative IPC: 0.684028 (Simulation time: 0 hr 19 min 52 sec) 
Heartbeat CPU 0 instructions: 25000003 cycles: 27513822 heartbeat IPC: 0.801717 cumulative IPC: 0.690788 (Simulation time: 0 hr 21 min 5 sec) 
Heartbeat CPU 0 instructions: 26000000 cycles: 31203940 heartbeat IPC: 0.270993 cumulative IPC: 0.629811 (Simulation time: 0 hr 22 min 27 sec) 
Heartbeat CPU 0 instructions: 27000000 cycles: 32418426 heartbeat IPC: 0.823394 cumulative IPC: 0.638643 (Simulation time: 0 hr 23 min 23 sec) 
Heartbeat CPU 0 instructions: 28000000 cycles: 35983772 heartbeat IPC: 0.280478 cumulative IPC: 0.596337 (Simulation time: 0 hr 24 min 20 sec) 
Heartbeat CPU 0 instructions: 29000000 cycles: 37203502 heartbeat IPC: 0.819854 cumulative IPC: 0.605018 (Simulation time: 0 hr 25 min 6 sec) 
Heartbeat CPU 0 instructions: 30000003 cycles: 38557064 heartbeat IPC: 0.738794 cumulative IPC: 0.610546 (Simulation time: 0 hr 25 min 48 sec) 
Heartbeat CPU 0 instructions: 31000002 cycles: 39723595 heartbeat IPC: 0.857242 cumulative IPC: 0.619029 (Simulation time: 0 hr 26 min 29 sec) 
Heartbeat CPU 0 instructions: 32000000 cycles: 41035957 heartbeat IPC: 0.761983 cumulative IPC: 0.624353 (Simulation time: 0 hr 27 min 4 sec) 
Heartbeat CPU 0 instructions: 33000003 cycles: 42198360 heartbeat IPC: 0.860289 cumulative IPC: 0.631888 (Simulation time: 0 hr 27 min 49 sec) 
Heartbeat CPU 0 instructions: 34000002 cycles: 43515064 heartbeat IPC: 0.759471 cumulative IPC: 0.636342 (Simulation time: 0 hr 28 min 29 sec) 
Heartbeat CPU 0 instructions: 35000003 cycles: 44695710 heartbeat IPC: 0.846995 cumulative IPC: 0.642736 (Simulation time: 0 hr 29 min 14 sec) 
Heartbeat CPU 0 instructions: 36000000 cycles: 46063827 heartbeat IPC: 0.730929 cumulative IPC: 0.645733 (Simulation time: 0 hr 29 min 57 sec) 
Heartbeat CPU 0 instructions: 37000000 cycles: 47393323 heartbeat IPC: 0.752165 cumulative IPC: 0.649135 (Simulation time: 0 hr 30 min 52 sec) 
Heartbeat CPU 0 instructions: 38000001 cycles: 48722861 heartbeat IPC: 0.752142 cumulative IPC: 0.652325 (Simulation time: 0 hr 31 min 43 sec) 
Heartbeat CPU 0 instructions: 39000000 cycles: 50052250 heartbeat IPC: 0.752225 cumulative IPC: 0.655326 (Simulation time: 0 hr 32 min 33 sec) 
Heartbeat CPU 0 instructions: 40000000 cycles: 51381790 heartbeat IPC: 0.75214 cumulative IPC: 0.65815 (Simulation time: 0 hr 33 min 28 sec) 
Heartbeat CPU 0 instructions: 41000000 cycles: 52648600 heartbeat IPC: 0.789384 cumulative IPC: 0.661699 (Simulation time: 0 hr 34 min 11 sec) 
Heartbeat CPU 0 instructions: 42000000 cycles: 53978081 heartbeat IPC: 0.752173 cumulative IPC: 0.664195 (Simulation time: 0 hr 35 min 1 sec) 
Heartbeat CPU 0 instructions: 43000002 cycles: 55307750 heartbeat IPC: 0.752068 cumulative IPC: 0.666555 (Simulation time: 0 hr 35 min 50 sec) 
Heartbeat CPU 0 instructions: 44000000 cycles: 56637251 heartbeat IPC: 0.75216 cumulative IPC: 0.668794 (Simulation time: 0 hr 36 min 38 sec) 
Heartbeat CPU 0 instructions: 45000001 cycles: 57966576 heartbeat IPC: 0.752262 cumulative IPC: 0.670921 (Simulation time: 0 hr 37 min 24 sec) 
Heartbeat CPU 0 instructions: 46000003 cycles: 59337899 heartbeat IPC: 0.729224 cumulative IPC: 0.672415 (Simulation time: 0 hr 38 min 11 sec) 
Heartbeat CPU 0 instructions: 47000001 cycles: 60466125 heartbeat IPC: 0.886345 cumulative IPC: 0.67683 (Simulation time: 0 hr 38 min 46 sec) 
Heartbeat CPU 0 instructions: 48000000 cycles: 61843147 heartbeat IPC: 0.726204 cumulative IPC: 0.678043 (Simulation time: 0 hr 39 min 22 sec) 
Heartbeat CPU 0 instructions: 49000003 cycles: 71448167 heartbeat IPC: 0.104113 cumulative IPC: 0.594071 (Simulation time: 0 hr 40 min 43 sec) 
Heartbeat CPU 0 instructions: 50000001 cycles: 73302609 heartbeat IPC: 0.539245 cumulative IPC: 0.592565 (Simulation time: 0 hr 41 min 31 sec) 
Heartbeat CPU 0 instructions: 51000000 cycles: 74946974 heartbeat IPC: 0.608137 cumulative IPC: 0.592936 (Simulation time: 0 hr 42 min 24 sec) 
Heartbeat CPU 0 instructions: 52000000 cycles: 76568791 heartbeat IPC: 0.616592 cumulative IPC: 0.593478 (Simulation time: 0 hr 43 min 9 sec) 
Heartbeat CPU 0 instructions: 53000000 cycles: 78203514 heartbeat IPC: 0.611724 cumulative IPC: 0.59389 (Simulation time: 0 hr 43 min 52 sec) 
Heartbeat CPU 0 instructions: 54000000 cycles: 79804848 heartbeat IPC: 0.624479 cumulative IPC: 0.594552 (Simulation time: 0 hr 44 min 39 sec) 
Heartbeat CPU 0 instructions: 55000000 cycles: 81393258 heartbeat IPC: 0.62956 cumulative IPC: 0.595287 (Simulation time: 0 hr 45 min 24 sec) 
Heartbeat CPU 0 instructions: 56000000 cycles: 82986436 heartbeat IPC: 0.627676 cumulative IPC: 0.595956 (Simulation time: 0 hr 46 min 13 sec) 
Heartbeat CPU 0 instructions: 57000002 cycles: 84626681 heartbeat IPC: 0.609666 cumulative IPC: 0.596241 (Simulation time: 0 hr 47 min 4 sec) 
Heartbeat CPU 0 instructions: 58000002 cycles: 86242233 heartbeat IPC: 0.618984 cumulative IPC: 0.596698 (Simulation time: 0 hr 47 min 53 sec) 
Heartbeat CPU 0 instructions: 59000001 cycles: 87860224 heartbeat IPC: 0.61805 cumulative IPC: 0.597119 (Simulation time: 0 hr 48 min 40 sec) 
Heartbeat CPU 0 instructions: 60000000 cycles: 89476037 heartbeat IPC: 0.618883 cumulative IPC: 0.597539 (Simulation time: 0 hr 49 min 28 sec) 
Heartbeat CPU 0 instructions: 61000000 cycles: 91076116 heartbeat IPC: 0.624969 cumulative IPC: 0.598054 (Simulation time: 0 hr 50 min 17 sec) 
Heartbeat CPU 0 instructions: 62000003 cycles: 92666698 heartbeat IPC: 0.628703 cumulative IPC: 0.598615 (Simulation time: 0 hr 51 min 6 sec) 
Heartbeat CPU 0 instructions: 63000002 cycles: 94270683 heartbeat IPC: 0.623447 cumulative IPC: 0.599065 (Simulation time: 0 hr 51 min 52 sec) 
Heartbeat CPU 0 instructions: 64000000 cycles: 95887518 heartbeat IPC: 0.618491 cumulative IPC: 0.599414 (Simulation time: 0 hr 52 min 33 sec) 
Heartbeat CPU 0 instructions: 65000003 cycles: 97519888 heartbeat IPC: 0.612608 cumulative IPC: 0.599649 (Simulation time: 0 hr 53 min 18 sec) 
Heartbeat CPU 0 instructions: 66000001 cycles: 99146068 heartbeat IPC: 0.614937 cumulative IPC: 0.599915 (Simulation time: 0 hr 54 min 2 sec) 
Heartbeat CPU 0 instructions: 67000000 cycles: 100751724 heartbeat IPC: 0.622798 cumulative IPC: 0.600302 (Simulation time: 0 hr 54 min 43 sec) 
Heartbeat CPU 0 instructions: 68000000 cycles: 102369333 heartbeat IPC: 0.618196 cumulative IPC: 0.600602 (Simulation time: 0 hr 55 min 26 sec) 
Heartbeat CPU 0 instructions: 69000000 cycles: 103976280 heartbeat IPC: 0.622298 cumulative IPC: 0.600957 (Simulation time: 0 hr 56 min 5 sec) 
Heartbeat CPU 0 instructions: 70000003 cycles: 105548291 heartbeat IPC: 0.63613 cumulative IPC: 0.601511 (Simulation time: 0 hr 56 min 48 sec) 
Heartbeat CPU 0 instructions: 71000003 cycles: 107164083 heartbeat IPC: 0.618892 cumulative IPC: 0.601788 (Simulation time: 0 hr 57 min 30 sec) 
Heartbeat CPU 0 instructions: 72000000 cycles: 108744372 heartbeat IPC: 0.632794 cumulative IPC: 0.602264 (Simulation time: 0 hr 58 min 9 sec) 
Heartbeat CPU 0 instructions: 73000002 cycles: 110368868 heartbeat IPC: 0.615577 cumulative IPC: 0.602471 (Simulation time: 0 hr 58 min 50 sec) 
Heartbeat CPU 0 instructions: 74000000 cycles: 111996973 heartbeat IPC: 0.61421 cumulative IPC: 0.602651 (Simulation time: 0 hr 59 min 28 sec) 
Heartbeat CPU 0 instructions: 75000000 cycles: 113628086 heartbeat IPC: 0.613078 cumulative IPC: 0.602809 (Simulation time: 1 hr 0 min 11 sec) 
Heartbeat CPU 0 instructions: 76000000 cycles: 115216435 heartbeat IPC: 0.629585 cumulative IPC: 0.603197 (Simulation time: 1 hr 0 min 51 sec) 
Heartbeat CPU 0 instructions: 77000002 cycles: 116849150 heartbeat IPC: 0.612478 cumulative IPC: 0.603334 (Simulation time: 1 hr 1 min 25 sec) 
Heartbeat CPU 0 instructions: 78000001 cycles: 118449154 heartbeat IPC: 0.624998 cumulative IPC: 0.603641 (Simulation time: 1 hr 2 min 9 sec) 
Heartbeat CPU 0 instructions: 79000000 cycles: 120037276 heartbeat IPC: 0.629674 cumulative IPC: 0.604003 (Simulation time: 1 hr 2 min 50 sec) 
Heartbeat CPU 0 instructions: 80000000 cycles: 121639710 heartbeat IPC: 0.624051 cumulative IPC: 0.604281 (Simulation time: 1 hr 3 min 24 sec) 
Heartbeat CPU 0 instructions: 81000001 cycles: 123241349 heartbeat IPC: 0.624361 cumulative IPC: 0.604554 (Simulation time: 1 hr 4 min 1 sec) 
Heartbeat CPU 0 instructions: 82000000 cycles: 124845145 heartbeat IPC: 0.62352 cumulative IPC: 0.60481 (Simulation time: 1 hr 4 min 34 sec) 
Heartbeat CPU 0 instructions: 83000003 cycles: 126440422 heartbeat IPC: 0.626852 cumulative IPC: 0.605101 (Simulation time: 1 hr 5 min 12 sec) 
Heartbeat CPU 0 instructions: 84000000 cycles: 128040120 heartbeat IPC: 0.625116 cumulative IPC: 0.605363 (Simulation time: 1 hr 5 min 43 sec) 
Heartbeat CPU 0 instructions: 85000001 cycles: 129662282 heartbeat IPC: 0.616462 cumulative IPC: 0.605509 (Simulation time: 1 hr 6 min 16 sec) 
Heartbeat CPU 0 instructions: 86000000 cycles: 131271663 heartbeat IPC: 0.621356 cumulative IPC: 0.605712 (Simulation time: 1 hr 6 min 49 sec) 
Heartbeat CPU 0 instructions: 87000002 cycles: 132876299 heartbeat IPC: 0.623196 cumulative IPC: 0.605933 (Simulation time: 1 hr 7 min 20 sec) 
Heartbeat CPU 0 instructions: 88000000 cycles: 134501959 heartbeat IPC: 0.615134 cumulative IPC: 0.606049 (Simulation time: 1 hr 7 min 54 sec) 
Heartbeat CPU 0 instructions: 89000003 cycles: 136145221 heartbeat IPC: 0.608548 cumulative IPC: 0.60608 (Simulation time: 1 hr 8 min 23 sec) 
Heartbeat CPU 0 instructions: 90000000 cycles: 137791464 heartbeat IPC: 0.607442 cumulative IPC: 0.606097 (Simulation time: 1 hr 8 min 51 sec) 
Heartbeat CPU 0 instructions: 91000002 cycles: 139428443 heartbeat IPC: 0.610883 cumulative IPC: 0.606156 (Simulation time: 1 hr 9 min 19 sec) 
Heartbeat CPU 0 instructions: 92000000 cycles: 141048747 heartbeat IPC: 0.617167 cumulative IPC: 0.606288 (Simulation time: 1 hr 9 min 51 sec) 
Heartbeat CPU 0 instructions: 93000001 cycles: 142671391 heartbeat IPC: 0.616279 cumulative IPC: 0.606406 (Simulation time: 1 hr 10 min 23 sec) 
Heartbeat CPU 0 instructions: 94000003 cycles: 144274191 heartbeat IPC: 0.623909 cumulative IPC: 0.606609 (Simulation time: 1 hr 10 min 48 sec) 
Heartbeat CPU 0 instructions: 95000001 cycles: 145864080 heartbeat IPC: 0.628973 cumulative IPC: 0.606863 (Simulation time: 1 hr 11 min 13 sec) 
Heartbeat CPU 0 instructions: 96000000 cycles: 147480021 heartbeat IPC: 0.618834 cumulative IPC: 0.606999 (Simulation time: 1 hr 11 min 36 sec) 
Heartbeat CPU 0 instructions: 97000002 cycles: 149090853 heartbeat IPC: 0.620798 cumulative IPC: 0.607155 (Simulation time: 1 hr 11 min 57 sec) 
Heartbeat CPU 0 instructions: 98000001 cycles: 150714927 heartbeat IPC: 0.615735 cumulative IPC: 0.607251 (Simulation time: 1 hr 12 min 17 sec) 
Heartbeat CPU 0 instructions: 99000001 cycles: 152293592 heartbeat IPC: 0.633447 cumulative IPC: 0.607533 (Simulation time: 1 hr 12 min 37 sec) 
Heartbeat CPU 0 instructions: 100000000 cycles: 153916697 heartbeat IPC: 0.616102 cumulative IPC: 0.607627 (Simulation time: 1 hr 12 min 57 sec) 
Heartbeat CPU 0 instructions: 101000001 cycles: 155541353 heartbeat IPC: 0.615516 cumulative IPC: 0.607713 (Simulation time: 1 hr 13 min 18 sec) 
Heartbeat CPU 0 instructions: 102000000 cycles: 157162106 heartbeat IPC: 0.616997 cumulative IPC: 0.607812 (Simulation time: 1 hr 13 min 37 sec) 
Heartbeat CPU 0 instructions: 103000000 cycles: 158764437 heartbeat IPC: 0.624091 cumulative IPC: 0.607982 (Simulation time: 1 hr 13 min 55 sec) 
Heartbeat CPU 0 instructions: 104000000 cycles: 160382647 heartbeat IPC: 0.617967 cumulative IPC: 0.608087 (Simulation time: 1 hr 14 min 11 sec) 
Heartbeat CPU 0 instructions: 105000000 cycles: 162019646 heartbeat IPC: 0.610874 cumulative IPC: 0.608116 (Simulation time: 1 hr 14 min 27 sec) 
Heartbeat CPU 0 instructions: 106000001 cycles: 163642664 heartbeat IPC: 0.616137 cumulative IPC: 0.608199 (Simulation time: 1 hr 14 min 43 sec) 
Heartbeat CPU 0 instructions: 107000001 cycles: 165272939 heartbeat IPC: 0.613393 cumulative IPC: 0.608252 (Simulation time: 1 hr 14 min 57 sec) 
Heartbeat CPU 0 instructions: 108000000 cycles: 166897928 heartbeat IPC: 0.615388 cumulative IPC: 0.608324 (Simulation time: 1 hr 15 min 11 sec) 
Heartbeat CPU 0 instructions: 109000003 cycles: 168478509 heartbeat IPC: 0.632681 cumulative IPC: 0.60856 (Simulation time: 1 hr 15 min 24 sec) 
Heartbeat CPU 0 instructions: 110000002 cycles: 170095617 heartbeat IPC: 0.618387 cumulative IPC: 0.608657 (Simulation time: 1 hr 15 min 35 sec) 
Finished CPU 0 instructions: 100000001 cycles: 164296125 cummulative IPC: 0.608657 (Simulation time: 1 hr 15 min 35 sec) 

ChampSim completed all CPUs

Region of Interest Statistics

CPU 0 cummulative IPC: 0.608657 instructions: 100000001 cycles: 164296125
LLC TOTAL     ACCESS:    4812322  HIT:     561917  MISS:    4250405
LLC LOAD      ACCESS:     462145  HIT:      36034  MISS:     426111
LLC RFO       ACCESS:     126471  HIT:      96754  MISS:      29717
LLC PREFETCH  ACCESS:    2859416  HIT:     108064  MISS:    2751352
LLC WRITEBACK ACCESS:    1364290  HIT:     321065  MISS:    1043225
