
*** ChampSim Multicore Out-of-Order Simulator ***

Warmup Instructions: 10000000
Simulation Instructions: 100000000
Configuration: 2
Number of CPUs: 1
LLC sets: 2048
LLC ways: 16
Off-chip DRAM Channels: 1 Width: 64-bit Data Rate: 1600 MT/s

CPU 0 runs /datasets/cs240c-wi22-a00-public/data/Assignment2-gz/milc_744B.trace.gz
CPU 0 L1D next line prefetcher
CPU 0 L2C IP-based stride prefetcher
Heartbeat CPU 0 instructions: 1000000 cycles: 383656 heartbeat IPC: 2.6065 cumulative IPC: 2.6065 (Simulation time: 0 hr 0 min 36 sec) 
Heartbeat CPU 0 instructions: 2000001 cycles: 767293 heartbeat IPC: 2.60663 cumulative IPC: 2.60657 (Simulation time: 0 hr 1 min 9 sec) 
Heartbeat CPU 0 instructions: 3000001 cycles: 1150974 heartbeat IPC: 2.60633 cumulative IPC: 2.60649 (Simulation time: 0 hr 1 min 45 sec) 
Heartbeat CPU 0 instructions: 4000000 cycles: 1534617 heartbeat IPC: 2.60659 cumulative IPC: 2.60651 (Simulation time: 0 hr 2 min 22 sec) 
Heartbeat CPU 0 instructions: 5000001 cycles: 1918298 heartbeat IPC: 2.60633 cumulative IPC: 2.60648 (Simulation time: 0 hr 3 min 0 sec) 
Heartbeat CPU 0 instructions: 6000002 cycles: 2301951 heartbeat IPC: 2.60652 cumulative IPC: 2.60649 (Simulation time: 0 hr 3 min 38 sec) 
Heartbeat CPU 0 instructions: 7000002 cycles: 2685605 heartbeat IPC: 2.60652 cumulative IPC: 2.60649 (Simulation time: 0 hr 4 min 12 sec) 
Heartbeat CPU 0 instructions: 8000000 cycles: 3069239 heartbeat IPC: 2.60665 cumulative IPC: 2.60651 (Simulation time: 0 hr 4 min 52 sec) 
Heartbeat CPU 0 instructions: 9000003 cycles: 3452946 heartbeat IPC: 2.60616 cumulative IPC: 2.60647 (Simulation time: 0 hr 5 min 29 sec) 
Heartbeat CPU 0 instructions: 10000002 cycles: 3836611 heartbeat IPC: 2.60644 cumulative IPC: 2.60647 (Simulation time: 0 hr 6 min 13 sec) 

Warmup complete CPU 0 instructions: 10000002 cycles: 3836611 (Simulation time: 0 hr 6 min 13 sec) 

Heartbeat CPU 0 instructions: 11000003 cycles: 5247851 heartbeat IPC: 0.708597 cumulative IPC: 0.708597 (Simulation time: 0 hr 6 min 51 sec) 
Heartbeat CPU 0 instructions: 12000000 cycles: 6649919 heartbeat IPC: 0.71323 cumulative IPC: 0.710906 (Simulation time: 0 hr 7 min 30 sec) 
Heartbeat CPU 0 instructions: 13000003 cycles: 8061388 heartbeat IPC: 0.708484 cumulative IPC: 0.710097 (Simulation time: 0 hr 8 min 7 sec) 
Heartbeat CPU 0 instructions: 14000000 cycles: 9478594 heartbeat IPC: 0.705612 cumulative IPC: 0.70897 (Simulation time: 0 hr 8 min 56 sec) 
Heartbeat CPU 0 instructions: 15000000 cycles: 10886940 heartbeat IPC: 0.710053 cumulative IPC: 0.709186 (Simulation time: 0 hr 9 min 39 sec) 
Heartbeat CPU 0 instructions: 16000000 cycles: 12294881 heartbeat IPC: 0.710257 cumulative IPC: 0.709365 (Simulation time: 0 hr 10 min 21 sec) 
Heartbeat CPU 0 instructions: 17000001 cycles: 13715779 heartbeat IPC: 0.703781 cumulative IPC: 0.708562 (Simulation time: 0 hr 11 min 0 sec) 
Heartbeat CPU 0 instructions: 18000000 cycles: 15139036 heartbeat IPC: 0.702613 cumulative IPC: 0.707813 (Simulation time: 0 hr 11 min 39 sec) 
Heartbeat CPU 0 instructions: 19000003 cycles: 16554193 heartbeat IPC: 0.706638 cumulative IPC: 0.707682 (Simulation time: 0 hr 12 min 18 sec) 
Heartbeat CPU 0 instructions: 20000000 cycles: 17972707 heartbeat IPC: 0.704961 cumulative IPC: 0.707409 (Simulation time: 0 hr 12 min 53 sec) 
Heartbeat CPU 0 instructions: 21000003 cycles: 19391208 heartbeat IPC: 0.704972 cumulative IPC: 0.707187 (Simulation time: 0 hr 13 min 28 sec) 
Heartbeat CPU 0 instructions: 22000002 cycles: 20811923 heartbeat IPC: 0.70387 cumulative IPC: 0.706909 (Simulation time: 0 hr 14 min 7 sec) 
Heartbeat CPU 0 instructions: 23000000 cycles: 22228352 heartbeat IPC: 0.705999 cumulative IPC: 0.706839 (Simulation time: 0 hr 14 min 44 sec) 
Heartbeat CPU 0 instructions: 24000000 cycles: 23637645 heartbeat IPC: 0.709576 cumulative IPC: 0.707034 (Simulation time: 0 hr 15 min 23 sec) 
Heartbeat CPU 0 instructions: 25000002 cycles: 25054389 heartbeat IPC: 0.705845 cumulative IPC: 0.706954 (Simulation time: 0 hr 15 min 58 sec) 
Heartbeat CPU 0 instructions: 26000001 cycles: 26471650 heartbeat IPC: 0.705586 cumulative IPC: 0.706869 (Simulation time: 0 hr 16 min 33 sec) 
Heartbeat CPU 0 instructions: 27000001 cycles: 27890421 heartbeat IPC: 0.704835 cumulative IPC: 0.706749 (Simulation time: 0 hr 17 min 8 sec) 
Heartbeat CPU 0 instructions: 28000000 cycles: 29306981 heartbeat IPC: 0.705935 cumulative IPC: 0.706703 (Simulation time: 0 hr 17 min 46 sec) 
Heartbeat CPU 0 instructions: 29000000 cycles: 30724787 heartbeat IPC: 0.705315 cumulative IPC: 0.70663 (Simulation time: 0 hr 18 min 17 sec) 
Heartbeat CPU 0 instructions: 30000000 cycles: 32142051 heartbeat IPC: 0.705585 cumulative IPC: 0.706578 (Simulation time: 0 hr 18 min 53 sec) 
Heartbeat CPU 0 instructions: 31000003 cycles: 33557638 heartbeat IPC: 0.706423 cumulative IPC: 0.706571 (Simulation time: 0 hr 19 min 29 sec) 
Heartbeat CPU 0 instructions: 32000000 cycles: 34973578 heartbeat IPC: 0.706243 cumulative IPC: 0.706556 (Simulation time: 0 hr 20 min 8 sec) 
Heartbeat CPU 0 instructions: 33000001 cycles: 36390711 heartbeat IPC: 0.705651 cumulative IPC: 0.706516 (Simulation time: 0 hr 20 min 44 sec) 
Heartbeat CPU 0 instructions: 34000002 cycles: 37811094 heartbeat IPC: 0.704036 cumulative IPC: 0.706412 (Simulation time: 0 hr 21 min 23 sec) 
Heartbeat CPU 0 instructions: 35000000 cycles: 39229253 heartbeat IPC: 0.705138 cumulative IPC: 0.706361 (Simulation time: 0 hr 22 min 0 sec) 
Heartbeat CPU 0 instructions: 36000000 cycles: 40642383 heartbeat IPC: 0.707649 cumulative IPC: 0.706411 (Simulation time: 0 hr 22 min 40 sec) 
Heartbeat CPU 0 instructions: 37000001 cycles: 42070122 heartbeat IPC: 0.700409 cumulative IPC: 0.706187 (Simulation time: 0 hr 23 min 21 sec) 
Heartbeat CPU 0 instructions: 38000001 cycles: 43486097 heartbeat IPC: 0.706227 cumulative IPC: 0.706188 (Simulation time: 0 hr 23 min 58 sec) 
Heartbeat CPU 0 instructions: 39000001 cycles: 44901360 heartbeat IPC: 0.706582 cumulative IPC: 0.706202 (Simulation time: 0 hr 24 min 39 sec) 
Heartbeat CPU 0 instructions: 40000000 cycles: 46320026 heartbeat IPC: 0.704887 cumulative IPC: 0.706158 (Simulation time: 0 hr 25 min 18 sec) 
Heartbeat CPU 0 instructions: 41000000 cycles: 47737708 heartbeat IPC: 0.705377 cumulative IPC: 0.706133 (Simulation time: 0 hr 25 min 58 sec) 
Heartbeat CPU 0 instructions: 42000002 cycles: 49153723 heartbeat IPC: 0.706209 cumulative IPC: 0.706135 (Simulation time: 0 hr 26 min 32 sec) 
Heartbeat CPU 0 instructions: 43000003 cycles: 50566673 heartbeat IPC: 0.70774 cumulative IPC: 0.706184 (Simulation time: 0 hr 27 min 15 sec) 
Heartbeat CPU 0 instructions: 44000000 cycles: 51986199 heartbeat IPC: 0.704458 cumulative IPC: 0.706133 (Simulation time: 0 hr 27 min 53 sec) 
Heartbeat CPU 0 instructions: 45000000 cycles: 53404204 heartbeat IPC: 0.705216 cumulative IPC: 0.706106 (Simulation time: 0 hr 28 min 30 sec) 
Heartbeat CPU 0 instructions: 46000003 cycles: 54822466 heartbeat IPC: 0.70509 cumulative IPC: 0.706078 (Simulation time: 0 hr 29 min 7 sec) 
Heartbeat CPU 0 instructions: 47000002 cycles: 56239598 heartbeat IPC: 0.70565 cumulative IPC: 0.706067 (Simulation time: 0 hr 29 min 42 sec) 
Heartbeat CPU 0 instructions: 48000000 cycles: 57659000 heartbeat IPC: 0.704521 cumulative IPC: 0.706026 (Simulation time: 0 hr 30 min 23 sec) 
Heartbeat CPU 0 instructions: 49000001 cycles: 59074597 heartbeat IPC: 0.706416 cumulative IPC: 0.706036 (Simulation time: 0 hr 30 min 56 sec) 
Heartbeat CPU 0 instructions: 50000001 cycles: 60494615 heartbeat IPC: 0.704216 cumulative IPC: 0.70599 (Simulation time: 0 hr 31 min 35 sec) 
Heartbeat CPU 0 instructions: 51000001 cycles: 61911430 heartbeat IPC: 0.705808 cumulative IPC: 0.705986 (Simulation time: 0 hr 32 min 14 sec) 
Heartbeat CPU 0 instructions: 52000000 cycles: 63327600 heartbeat IPC: 0.706129 cumulative IPC: 0.705989 (Simulation time: 0 hr 32 min 53 sec) 
Heartbeat CPU 0 instructions: 53000000 cycles: 64747819 heartbeat IPC: 0.704117 cumulative IPC: 0.705946 (Simulation time: 0 hr 33 min 30 sec) 
Heartbeat CPU 0 instructions: 54000001 cycles: 66166934 heartbeat IPC: 0.704665 cumulative IPC: 0.705916 (Simulation time: 0 hr 34 min 16 sec) 
Heartbeat CPU 0 instructions: 55000003 cycles: 67587169 heartbeat IPC: 0.70411 cumulative IPC: 0.705876 (Simulation time: 0 hr 34 min 57 sec) 
Heartbeat CPU 0 instructions: 56000000 cycles: 69009921 heartbeat IPC: 0.702861 cumulative IPC: 0.70581 (Simulation time: 0 hr 35 min 31 sec) 
Heartbeat CPU 0 instructions: 57000000 cycles: 70426396 heartbeat IPC: 0.705978 cumulative IPC: 0.705814 (Simulation time: 0 hr 36 min 7 sec) 
Heartbeat CPU 0 instructions: 58000000 cycles: 71846204 heartbeat IPC: 0.704321 cumulative IPC: 0.705783 (Simulation time: 0 hr 36 min 50 sec) 
Heartbeat CPU 0 instructions: 59000002 cycles: 73262073 heartbeat IPC: 0.706281 cumulative IPC: 0.705793 (Simulation time: 0 hr 37 min 29 sec) 
Heartbeat CPU 0 instructions: 60000000 cycles: 74674232 heartbeat IPC: 0.708134 cumulative IPC: 0.70584 (Simulation time: 0 hr 38 min 9 sec) 
Heartbeat CPU 0 instructions: 61000001 cycles: 76088499 heartbeat IPC: 0.707081 cumulative IPC: 0.705864 (Simulation time: 0 hr 38 min 48 sec) 
Heartbeat CPU 0 instructions: 62000003 cycles: 77512645 heartbeat IPC: 0.702177 cumulative IPC: 0.705793 (Simulation time: 0 hr 39 min 28 sec) 
Heartbeat CPU 0 instructions: 63000001 cycles: 78934750 heartbeat IPC: 0.703182 cumulative IPC: 0.705743 (Simulation time: 0 hr 40 min 1 sec) 
Heartbeat CPU 0 instructions: 64000000 cycles: 80348198 heartbeat IPC: 0.707489 cumulative IPC: 0.705775 (Simulation time: 0 hr 40 min 40 sec) 
Heartbeat CPU 0 instructions: 65000002 cycles: 81770658 heartbeat IPC: 0.703009 cumulative IPC: 0.705725 (Simulation time: 0 hr 41 min 19 sec) 
Heartbeat CPU 0 instructions: 66000001 cycles: 83187344 heartbeat IPC: 0.705872 cumulative IPC: 0.705728 (Simulation time: 0 hr 41 min 53 sec) 
Heartbeat CPU 0 instructions: 67000003 cycles: 84601824 heartbeat IPC: 0.706975 cumulative IPC: 0.705749 (Simulation time: 0 hr 42 min 30 sec) 
Heartbeat CPU 0 instructions: 68000000 cycles: 86025476 heartbeat IPC: 0.702417 cumulative IPC: 0.705692 (Simulation time: 0 hr 43 min 8 sec) 
Heartbeat CPU 0 instructions: 69000003 cycles: 87445855 heartbeat IPC: 0.70404 cumulative IPC: 0.705664 (Simulation time: 0 hr 43 min 42 sec) 
Heartbeat CPU 0 instructions: 70000002 cycles: 88863875 heartbeat IPC: 0.705208 cumulative IPC: 0.705656 (Simulation time: 0 hr 44 min 19 sec) 
Heartbeat CPU 0 instructions: 71000002 cycles: 90271955 heartbeat IPC: 0.710187 cumulative IPC: 0.70573 (Simulation time: 0 hr 44 min 55 sec) 
Heartbeat CPU 0 instructions: 72000000 cycles: 91631661 heartbeat IPC: 0.735452 cumulative IPC: 0.70619 (Simulation time: 0 hr 45 min 34 sec) 
Heartbeat CPU 0 instructions: 73000002 cycles: 93053660 heartbeat IPC: 0.703237 cumulative IPC: 0.706143 (Simulation time: 0 hr 46 min 16 sec) 
Heartbeat CPU 0 instructions: 74000002 cycles: 94471583 heartbeat IPC: 0.705257 cumulative IPC: 0.706129 (Simulation time: 0 hr 46 min 53 sec) 
Heartbeat CPU 0 instructions: 75000001 cycles: 95886110 heartbeat IPC: 0.706949 cumulative IPC: 0.706142 (Simulation time: 0 hr 47 min 29 sec) 
Heartbeat CPU 0 instructions: 76000000 cycles: 97302785 heartbeat IPC: 0.705877 cumulative IPC: 0.706138 (Simulation time: 0 hr 48 min 9 sec) 
Heartbeat CPU 0 instructions: 77000002 cycles: 98716475 heartbeat IPC: 0.70737 cumulative IPC: 0.706156 (Simulation time: 0 hr 48 min 42 sec) 
Heartbeat CPU 0 instructions: 78000000 cycles: 100136213 heartbeat IPC: 0.704354 cumulative IPC: 0.70613 (Simulation time: 0 hr 49 min 15 sec) 
Heartbeat CPU 0 instructions: 79000000 cycles: 101557850 heartbeat IPC: 0.703414 cumulative IPC: 0.70609 (Simulation time: 0 hr 49 min 54 sec) 
Heartbeat CPU 0 instructions: 80000000 cycles: 102980945 heartbeat IPC: 0.702694 cumulative IPC: 0.706041 (Simulation time: 0 hr 50 min 31 sec) 
Heartbeat CPU 0 instructions: 81000003 cycles: 104395142 heartbeat IPC: 0.707117 cumulative IPC: 0.706056 (Simulation time: 0 hr 51 min 6 sec) 
Heartbeat CPU 0 instructions: 82000003 cycles: 105809232 heartbeat IPC: 0.707169 cumulative IPC: 0.706072 (Simulation time: 0 hr 51 min 37 sec) 
Heartbeat CPU 0 instructions: 83000002 cycles: 107225411 heartbeat IPC: 0.706125 cumulative IPC: 0.706073 (Simulation time: 0 hr 52 min 8 sec) 
Heartbeat CPU 0 instructions: 84000000 cycles: 108641451 heartbeat IPC: 0.706193 cumulative IPC: 0.706074 (Simulation time: 0 hr 52 min 43 sec) 
Heartbeat CPU 0 instructions: 85000000 cycles: 110061471 heartbeat IPC: 0.704215 cumulative IPC: 0.706049 (Simulation time: 0 hr 53 min 20 sec) 
Heartbeat CPU 0 instructions: 86000001 cycles: 111473446 heartbeat IPC: 0.708229 cumulative IPC: 0.706078 (Simulation time: 0 hr 53 min 56 sec) 
Heartbeat CPU 0 instructions: 87000001 cycles: 112892321 heartbeat IPC: 0.704784 cumulative IPC: 0.706061 (Simulation time: 0 hr 54 min 30 sec) 
Heartbeat CPU 0 instructions: 88000000 cycles: 114292739 heartbeat IPC: 0.714072 cumulative IPC: 0.706163 (Simulation time: 0 hr 55 min 1 sec) 
Heartbeat CPU 0 instructions: 89000001 cycles: 115671892 heartbeat IPC: 0.725083 cumulative IPC: 0.706396 (Simulation time: 0 hr 55 min 35 sec) 
Heartbeat CPU 0 instructions: 90000000 cycles: 117060628 heartbeat IPC: 0.720079 cumulative IPC: 0.706564 (Simulation time: 0 hr 56 min 12 sec) 
Heartbeat CPU 0 instructions: 91000001 cycles: 118483114 heartbeat IPC: 0.702995 cumulative IPC: 0.70652 (Simulation time: 0 hr 56 min 43 sec) 
Heartbeat CPU 0 instructions: 92000000 cycles: 122842322 heartbeat IPC: 0.229399 cumulative IPC: 0.689043 (Simulation time: 0 hr 57 min 52 sec) 
Heartbeat CPU 0 instructions: 93000000 cycles: 127204801 heartbeat IPC: 0.229227 cumulative IPC: 0.672783 (Simulation time: 0 hr 58 min 52 sec) 
Heartbeat CPU 0 instructions: 94000000 cycles: 130185655 heartbeat IPC: 0.335474 cumulative IPC: 0.664825 (Simulation time: 0 hr 59 min 43 sec) 
Heartbeat CPU 0 instructions: 95000000 cycles: 131396005 heartbeat IPC: 0.826207 cumulative IPC: 0.666356 (Simulation time: 1 hr 0 min 20 sec) 
Heartbeat CPU 0 instructions: 96000000 cycles: 132745464 heartbeat IPC: 0.741038 cumulative IPC: 0.667138 (Simulation time: 1 hr 0 min 50 sec) 
Heartbeat CPU 0 instructions: 97000002 cycles: 134013404 heartbeat IPC: 0.788682 cumulative IPC: 0.668322 (Simulation time: 1 hr 1 min 15 sec) 
Heartbeat CPU 0 instructions: 98000003 cycles: 135256207 heartbeat IPC: 0.804634 cumulative IPC: 0.669611 (Simulation time: 1 hr 1 min 48 sec) 
Heartbeat CPU 0 instructions: 99000000 cycles: 136503377 heartbeat IPC: 0.801813 cumulative IPC: 0.670854 (Simulation time: 1 hr 2 min 21 sec) 
Heartbeat CPU 0 instructions: 100000000 cycles: 137759724 heartbeat IPC: 0.795958 cumulative IPC: 0.672027 (Simulation time: 1 hr 2 min 51 sec) 
Heartbeat CPU 0 instructions: 101000001 cycles: 139018069 heartbeat IPC: 0.794695 cumulative IPC: 0.673169 (Simulation time: 1 hr 3 min 14 sec) 
Heartbeat CPU 0 instructions: 102000000 cycles: 140276522 heartbeat IPC: 0.794626 cumulative IPC: 0.674289 (Simulation time: 1 hr 3 min 39 sec) 
Heartbeat CPU 0 instructions: 103000002 cycles: 141533873 heartbeat IPC: 0.795324 cumulative IPC: 0.675395 (Simulation time: 1 hr 4 min 5 sec) 
Heartbeat CPU 0 instructions: 104000000 cycles: 142794882 heartbeat IPC: 0.793014 cumulative IPC: 0.676462 (Simulation time: 1 hr 4 min 27 sec) 
Heartbeat CPU 0 instructions: 105000003 cycles: 144054776 heartbeat IPC: 0.79372 cumulative IPC: 0.677516 (Simulation time: 1 hr 4 min 52 sec) 
Heartbeat CPU 0 instructions: 106000002 cycles: 145306185 heartbeat IPC: 0.799098 cumulative IPC: 0.678591 (Simulation time: 1 hr 5 min 13 sec) 
Heartbeat CPU 0 instructions: 107000002 cycles: 146565915 heartbeat IPC: 0.793821 cumulative IPC: 0.679608 (Simulation time: 1 hr 5 min 33 sec) 
Heartbeat CPU 0 instructions: 108000000 cycles: 147828337 heartbeat IPC: 0.792127 cumulative IPC: 0.680595 (Simulation time: 1 hr 5 min 55 sec) 
Heartbeat CPU 0 instructions: 109000001 cycles: 149082151 heartbeat IPC: 0.797567 cumulative IPC: 0.681604 (Simulation time: 1 hr 6 min 18 sec) 
Heartbeat CPU 0 instructions: 110000001 cycles: 150340785 heartbeat IPC: 0.794512 cumulative IPC: 0.682574 (Simulation time: 1 hr 6 min 41 sec) 
Finished CPU 0 instructions: 100000003 cycles: 146504175 cummulative IPC: 0.682574 (Simulation time: 1 hr 6 min 41 sec) 

ChampSim completed all CPUs

Region of Interest Statistics

CPU 0 cummulative IPC: 0.682574 instructions: 100000003 cycles: 146504175
LLC TOTAL     ACCESS:    2872436  HIT:     136734  MISS:    2735702
LLC LOAD      ACCESS:     739490  HIT:        737  MISS:     738753
LLC RFO       ACCESS:     423298  HIT:          0  MISS:     423298
LLC PREFETCH  ACCESS:    1008930  HIT:       3167  MISS:    1005763
LLC WRITEBACK ACCESS:     700718  HIT:     132830  MISS:     567888
