
*** ChampSim Multicore Out-of-Order Simulator ***

Warmup Instructions: 10000000
Simulation Instructions: 100000000
Configuration: 2
Number of CPUs: 1
LLC sets: 2048
LLC ways: 16
Off-chip DRAM Channels: 1 Width: 64-bit Data Rate: 1600 MT/s

CPU 0 runs /datasets/cs240c-wi22-a00-public/data/Assignment2-gz/calculix_2655B.trace.gz
CPU 0 L1D next line prefetcher
CPU 0 L2C IP-based stride prefetcher
Heartbeat CPU 0 instructions: 1000003 cycles: 392389 heartbeat IPC: 2.5485 cumulative IPC: 2.5485 (Simulation time: 0 hr 0 min 26 sec) 
Heartbeat CPU 0 instructions: 2000001 cycles: 785151 heartbeat IPC: 2.54607 cumulative IPC: 2.54728 (Simulation time: 0 hr 0 min 49 sec) 
Heartbeat CPU 0 instructions: 3000002 cycles: 1177702 heartbeat IPC: 2.54744 cumulative IPC: 2.54734 (Simulation time: 0 hr 1 min 16 sec) 
Heartbeat CPU 0 instructions: 4000000 cycles: 1569472 heartbeat IPC: 2.55251 cumulative IPC: 2.54863 (Simulation time: 0 hr 1 min 43 sec) 
Heartbeat CPU 0 instructions: 5000003 cycles: 1961689 heartbeat IPC: 2.54962 cumulative IPC: 2.54883 (Simulation time: 0 hr 2 min 10 sec) 
Heartbeat CPU 0 instructions: 6000003 cycles: 2353830 heartbeat IPC: 2.5501 cumulative IPC: 2.54904 (Simulation time: 0 hr 2 min 37 sec) 
Heartbeat CPU 0 instructions: 7000002 cycles: 2745987 heartbeat IPC: 2.55 cumulative IPC: 2.54918 (Simulation time: 0 hr 3 min 2 sec) 
Heartbeat CPU 0 instructions: 8000000 cycles: 3138004 heartbeat IPC: 2.5509 cumulative IPC: 2.54939 (Simulation time: 0 hr 3 min 27 sec) 
Heartbeat CPU 0 instructions: 9000001 cycles: 3530187 heartbeat IPC: 2.54983 cumulative IPC: 2.54944 (Simulation time: 0 hr 3 min 54 sec) 
Heartbeat CPU 0 instructions: 10000000 cycles: 3921662 heartbeat IPC: 2.55444 cumulative IPC: 2.54994 (Simulation time: 0 hr 4 min 23 sec) 

Warmup complete CPU 0 instructions: 10000004 cycles: 3921663 (Simulation time: 0 hr 4 min 23 sec) 

Heartbeat CPU 0 instructions: 11000001 cycles: 4593342 heartbeat IPC: 1.48881 cumulative IPC: 1.4888 (Simulation time: 0 hr 5 min 0 sec) 
Heartbeat CPU 0 instructions: 12000000 cycles: 5259984 heartbeat IPC: 1.50005 cumulative IPC: 1.49441 (Simulation time: 0 hr 5 min 32 sec) 
Heartbeat CPU 0 instructions: 13000000 cycles: 5924034 heartbeat IPC: 1.50591 cumulative IPC: 1.49822 (Simulation time: 0 hr 6 min 4 sec) 
Heartbeat CPU 0 instructions: 14000003 cycles: 6584187 heartbeat IPC: 1.5148 cumulative IPC: 1.50233 (Simulation time: 0 hr 6 min 35 sec) 
Heartbeat CPU 0 instructions: 15000002 cycles: 7230253 heartbeat IPC: 1.54783 cumulative IPC: 1.51122 (Simulation time: 0 hr 7 min 9 sec) 
Heartbeat CPU 0 instructions: 16000000 cycles: 7939625 heartbeat IPC: 1.40969 cumulative IPC: 1.49329 (Simulation time: 0 hr 7 min 44 sec) 
Heartbeat CPU 0 instructions: 17000000 cycles: 8580595 heartbeat IPC: 1.56014 cumulative IPC: 1.50249 (Simulation time: 0 hr 8 min 21 sec) 
Heartbeat CPU 0 instructions: 18000000 cycles: 9215544 heartbeat IPC: 1.57493 cumulative IPC: 1.51118 (Simulation time: 0 hr 8 min 58 sec) 
Heartbeat CPU 0 instructions: 19000000 cycles: 9850287 heartbeat IPC: 1.57544 cumulative IPC: 1.51806 (Simulation time: 0 hr 9 min 32 sec) 
Heartbeat CPU 0 instructions: 20000000 cycles: 10491768 heartbeat IPC: 1.55889 cumulative IPC: 1.52205 (Simulation time: 0 hr 10 min 3 sec) 
Heartbeat CPU 0 instructions: 21000000 cycles: 11129723 heartbeat IPC: 1.56751 cumulative IPC: 1.52607 (Simulation time: 0 hr 10 min 39 sec) 
Heartbeat CPU 0 instructions: 22000001 cycles: 11831521 heartbeat IPC: 1.42491 cumulative IPC: 1.51709 (Simulation time: 0 hr 11 min 9 sec) 
Heartbeat CPU 0 instructions: 23000000 cycles: 12483748 heartbeat IPC: 1.53321 cumulative IPC: 1.51832 (Simulation time: 0 hr 11 min 44 sec) 
Heartbeat CPU 0 instructions: 24000000 cycles: 13128359 heartbeat IPC: 1.55132 cumulative IPC: 1.52063 (Simulation time: 0 hr 12 min 16 sec) 
Heartbeat CPU 0 instructions: 25000003 cycles: 13779469 heartbeat IPC: 1.53584 cumulative IPC: 1.52164 (Simulation time: 0 hr 12 min 53 sec) 
Heartbeat CPU 0 instructions: 26000001 cycles: 14416545 heartbeat IPC: 1.56967 cumulative IPC: 1.52455 (Simulation time: 0 hr 13 min 25 sec) 
Heartbeat CPU 0 instructions: 27000000 cycles: 15076070 heartbeat IPC: 1.51624 cumulative IPC: 1.52406 (Simulation time: 0 hr 13 min 59 sec) 
Heartbeat CPU 0 instructions: 28000000 cycles: 15753703 heartbeat IPC: 1.47573 cumulative IPC: 1.52129 (Simulation time: 0 hr 14 min 34 sec) 
Heartbeat CPU 0 instructions: 29000003 cycles: 16391007 heartbeat IPC: 1.56911 cumulative IPC: 1.52374 (Simulation time: 0 hr 15 min 10 sec) 
Heartbeat CPU 0 instructions: 30000001 cycles: 17038526 heartbeat IPC: 1.54435 cumulative IPC: 1.52475 (Simulation time: 0 hr 15 min 41 sec) 
Heartbeat CPU 0 instructions: 31000000 cycles: 17681034 heartbeat IPC: 1.5564 cumulative IPC: 1.52623 (Simulation time: 0 hr 16 min 13 sec) 
Heartbeat CPU 0 instructions: 32000000 cycles: 18306141 heartbeat IPC: 1.59973 cumulative IPC: 1.52943 (Simulation time: 0 hr 16 min 42 sec) 
Heartbeat CPU 0 instructions: 33000003 cycles: 18972589 heartbeat IPC: 1.5005 cumulative IPC: 1.52815 (Simulation time: 0 hr 17 min 18 sec) 
Heartbeat CPU 0 instructions: 34000002 cycles: 19671911 heartbeat IPC: 1.42996 cumulative IPC: 1.52379 (Simulation time: 0 hr 17 min 52 sec) 
Heartbeat CPU 0 instructions: 35000001 cycles: 20342100 heartbeat IPC: 1.49211 cumulative IPC: 1.52249 (Simulation time: 0 hr 18 min 27 sec) 
Heartbeat CPU 0 instructions: 36000000 cycles: 21001357 heartbeat IPC: 1.51686 cumulative IPC: 1.52228 (Simulation time: 0 hr 18 min 59 sec) 
Heartbeat CPU 0 instructions: 37000002 cycles: 21667046 heartbeat IPC: 1.50221 cumulative IPC: 1.52152 (Simulation time: 0 hr 19 min 34 sec) 
Heartbeat CPU 0 instructions: 38000002 cycles: 22314592 heartbeat IPC: 1.54429 cumulative IPC: 1.52232 (Simulation time: 0 hr 20 min 9 sec) 
Heartbeat CPU 0 instructions: 39000002 cycles: 23050713 heartbeat IPC: 1.35847 cumulative IPC: 1.51602 (Simulation time: 0 hr 20 min 42 sec) 
Heartbeat CPU 0 instructions: 40000000 cycles: 23558788 heartbeat IPC: 1.96821 cumulative IPC: 1.52772 (Simulation time: 0 hr 21 min 14 sec) 
Heartbeat CPU 0 instructions: 41000003 cycles: 24050978 heartbeat IPC: 2.03174 cumulative IPC: 1.54004 (Simulation time: 0 hr 21 min 47 sec) 
Heartbeat CPU 0 instructions: 42000001 cycles: 24574966 heartbeat IPC: 1.90844 cumulative IPC: 1.54939 (Simulation time: 0 hr 22 min 19 sec) 
Heartbeat CPU 0 instructions: 43000001 cycles: 25105172 heartbeat IPC: 1.88606 cumulative IPC: 1.55782 (Simulation time: 0 hr 22 min 51 sec) 
Heartbeat CPU 0 instructions: 44000000 cycles: 25824638 heartbeat IPC: 1.38992 cumulative IPC: 1.5523 (Simulation time: 0 hr 23 min 20 sec) 
Heartbeat CPU 0 instructions: 45000002 cycles: 26296787 heartbeat IPC: 2.11798 cumulative IPC: 1.56424 (Simulation time: 0 hr 23 min 50 sec) 
Heartbeat CPU 0 instructions: 46000003 cycles: 26820687 heartbeat IPC: 1.90876 cumulative IPC: 1.57212 (Simulation time: 0 hr 24 min 20 sec) 
Heartbeat CPU 0 instructions: 47000000 cycles: 27333168 heartbeat IPC: 1.95129 cumulative IPC: 1.58042 (Simulation time: 0 hr 24 min 52 sec) 
Heartbeat CPU 0 instructions: 48000000 cycles: 27886054 heartbeat IPC: 1.80869 cumulative IPC: 1.58569 (Simulation time: 0 hr 25 min 22 sec) 
Heartbeat CPU 0 instructions: 49000000 cycles: 28334837 heartbeat IPC: 2.22825 cumulative IPC: 1.5975 (Simulation time: 0 hr 25 min 52 sec) 
Heartbeat CPU 0 instructions: 50000002 cycles: 28820977 heartbeat IPC: 2.05702 cumulative IPC: 1.60647 (Simulation time: 0 hr 26 min 23 sec) 
Heartbeat CPU 0 instructions: 51000001 cycles: 29302687 heartbeat IPC: 2.07594 cumulative IPC: 1.61538 (Simulation time: 0 hr 26 min 51 sec) 
Heartbeat CPU 0 instructions: 52000000 cycles: 29738647 heartbeat IPC: 2.29379 cumulative IPC: 1.62684 (Simulation time: 0 hr 27 min 23 sec) 
Heartbeat CPU 0 instructions: 53000002 cycles: 30271754 heartbeat IPC: 1.8758 cumulative IPC: 1.63187 (Simulation time: 0 hr 27 min 53 sec) 
Heartbeat CPU 0 instructions: 54000002 cycles: 31074804 heartbeat IPC: 1.24525 cumulative IPC: 1.62044 (Simulation time: 0 hr 28 min 30 sec) 
Heartbeat CPU 0 instructions: 55000002 cycles: 31614094 heartbeat IPC: 1.85429 cumulative IPC: 1.62499 (Simulation time: 0 hr 29 min 2 sec) 
Heartbeat CPU 0 instructions: 56000000 cycles: 32099809 heartbeat IPC: 2.05882 cumulative IPC: 1.63247 (Simulation time: 0 hr 29 min 34 sec) 
Heartbeat CPU 0 instructions: 57000000 cycles: 32644020 heartbeat IPC: 1.83752 cumulative IPC: 1.63636 (Simulation time: 0 hr 30 min 1 sec) 
Heartbeat CPU 0 instructions: 58000003 cycles: 33095532 heartbeat IPC: 2.21479 cumulative IPC: 1.64531 (Simulation time: 0 hr 30 min 33 sec) 
Heartbeat CPU 0 instructions: 59000001 cycles: 33630263 heartbeat IPC: 1.8701 cumulative IPC: 1.64935 (Simulation time: 0 hr 31 min 1 sec) 
Heartbeat CPU 0 instructions: 60000000 cycles: 34113944 heartbeat IPC: 2.06748 cumulative IPC: 1.65605 (Simulation time: 0 hr 31 min 34 sec) 
Heartbeat CPU 0 instructions: 61000002 cycles: 34631002 heartbeat IPC: 1.93402 cumulative IPC: 1.66073 (Simulation time: 0 hr 32 min 4 sec) 
Heartbeat CPU 0 instructions: 62000003 cycles: 35154622 heartbeat IPC: 1.90978 cumulative IPC: 1.66491 (Simulation time: 0 hr 32 min 33 sec) 
Heartbeat CPU 0 instructions: 63000003 cycles: 35837210 heartbeat IPC: 1.46501 cumulative IPC: 1.66063 (Simulation time: 0 hr 33 min 5 sec) 
Heartbeat CPU 0 instructions: 64000000 cycles: 36328229 heartbeat IPC: 2.03657 cumulative IPC: 1.66633 (Simulation time: 0 hr 33 min 30 sec) 
Heartbeat CPU 0 instructions: 65000001 cycles: 36856461 heartbeat IPC: 1.89311 cumulative IPC: 1.66997 (Simulation time: 0 hr 33 min 59 sec) 
Heartbeat CPU 0 instructions: 66000002 cycles: 37513856 heartbeat IPC: 1.52116 cumulative IPC: 1.66705 (Simulation time: 0 hr 34 min 35 sec) 
Heartbeat CPU 0 instructions: 67000003 cycles: 38116316 heartbeat IPC: 1.65986 cumulative IPC: 1.66693 (Simulation time: 0 hr 35 min 8 sec) 
Heartbeat CPU 0 instructions: 68000000 cycles: 38697815 heartbeat IPC: 1.71969 cumulative IPC: 1.66781 (Simulation time: 0 hr 35 min 40 sec) 
Heartbeat CPU 0 instructions: 69000001 cycles: 39272537 heartbeat IPC: 1.73997 cumulative IPC: 1.66898 (Simulation time: 0 hr 36 min 13 sec) 
Heartbeat CPU 0 instructions: 70000002 cycles: 39857601 heartbeat IPC: 1.70922 cumulative IPC: 1.66964 (Simulation time: 0 hr 36 min 47 sec) 
Heartbeat CPU 0 instructions: 71000003 cycles: 40433783 heartbeat IPC: 1.73556 cumulative IPC: 1.67068 (Simulation time: 0 hr 37 min 19 sec) 
Heartbeat CPU 0 instructions: 72000000 cycles: 41015158 heartbeat IPC: 1.72005 cumulative IPC: 1.67145 (Simulation time: 0 hr 37 min 52 sec) 
Heartbeat CPU 0 instructions: 73000000 cycles: 41598987 heartbeat IPC: 1.71283 cumulative IPC: 1.67209 (Simulation time: 0 hr 38 min 19 sec) 
Heartbeat CPU 0 instructions: 74000000 cycles: 42174506 heartbeat IPC: 1.73756 cumulative IPC: 1.67308 (Simulation time: 0 hr 38 min 44 sec) 
Heartbeat CPU 0 instructions: 75000000 cycles: 42816723 heartbeat IPC: 1.55711 cumulative IPC: 1.67116 (Simulation time: 0 hr 39 min 14 sec) 
Heartbeat CPU 0 instructions: 76000000 cycles: 43417143 heartbeat IPC: 1.6655 cumulative IPC: 1.67108 (Simulation time: 0 hr 39 min 45 sec) 
Heartbeat CPU 0 instructions: 77000003 cycles: 44015812 heartbeat IPC: 1.67038 cumulative IPC: 1.67107 (Simulation time: 0 hr 40 min 12 sec) 
Heartbeat CPU 0 instructions: 78000002 cycles: 44612683 heartbeat IPC: 1.6754 cumulative IPC: 1.67113 (Simulation time: 0 hr 40 min 43 sec) 
Heartbeat CPU 0 instructions: 79000001 cycles: 45200041 heartbeat IPC: 1.70254 cumulative IPC: 1.67158 (Simulation time: 0 hr 41 min 10 sec) 
Heartbeat CPU 0 instructions: 80000000 cycles: 45795234 heartbeat IPC: 1.68013 cumulative IPC: 1.6717 (Simulation time: 0 hr 41 min 39 sec) 
Heartbeat CPU 0 instructions: 81000001 cycles: 46385319 heartbeat IPC: 1.69467 cumulative IPC: 1.67202 (Simulation time: 0 hr 42 min 9 sec) 
Heartbeat CPU 0 instructions: 82000003 cycles: 46967306 heartbeat IPC: 1.71825 cumulative IPC: 1.67264 (Simulation time: 0 hr 42 min 41 sec) 
Heartbeat CPU 0 instructions: 83000003 cycles: 47554730 heartbeat IPC: 1.70235 cumulative IPC: 1.67304 (Simulation time: 0 hr 43 min 14 sec) 
Heartbeat CPU 0 instructions: 84000000 cycles: 48177668 heartbeat IPC: 1.60529 cumulative IPC: 1.67209 (Simulation time: 0 hr 43 min 43 sec) 
Heartbeat CPU 0 instructions: 85000002 cycles: 48730365 heartbeat IPC: 1.80931 cumulative IPC: 1.67378 (Simulation time: 0 hr 44 min 10 sec) 
Heartbeat CPU 0 instructions: 86000001 cycles: 49447429 heartbeat IPC: 1.39457 cumulative IPC: 1.66938 (Simulation time: 0 hr 44 min 47 sec) 
Heartbeat CPU 0 instructions: 87000003 cycles: 50045588 heartbeat IPC: 1.6718 cumulative IPC: 1.66942 (Simulation time: 0 hr 45 min 17 sec) 
Heartbeat CPU 0 instructions: 88000000 cycles: 50519147 heartbeat IPC: 2.11166 cumulative IPC: 1.67391 (Simulation time: 0 hr 45 min 47 sec) 
Heartbeat CPU 0 instructions: 89000000 cycles: 50985272 heartbeat IPC: 2.14535 cumulative IPC: 1.67858 (Simulation time: 0 hr 46 min 17 sec) 
Heartbeat CPU 0 instructions: 90000001 cycles: 51458676 heartbeat IPC: 2.11236 cumulative IPC: 1.6829 (Simulation time: 0 hr 46 min 46 sec) 
Heartbeat CPU 0 instructions: 91000002 cycles: 52010213 heartbeat IPC: 1.81312 cumulative IPC: 1.68439 (Simulation time: 0 hr 47 min 15 sec) 
Heartbeat CPU 0 instructions: 92000000 cycles: 52543228 heartbeat IPC: 1.87612 cumulative IPC: 1.68649 (Simulation time: 0 hr 47 min 46 sec) 
Heartbeat CPU 0 instructions: 93000000 cycles: 53080780 heartbeat IPC: 1.86029 cumulative IPC: 1.68839 (Simulation time: 0 hr 48 min 14 sec) 
Heartbeat CPU 0 instructions: 94000003 cycles: 53598020 heartbeat IPC: 1.93334 cumulative IPC: 1.69095 (Simulation time: 0 hr 48 min 42 sec) 
Heartbeat CPU 0 instructions: 95000003 cycles: 54149431 heartbeat IPC: 1.81353 cumulative IPC: 1.69229 (Simulation time: 0 hr 49 min 9 sec) 
Heartbeat CPU 0 instructions: 96000000 cycles: 54629906 heartbeat IPC: 2.08127 cumulative IPC: 1.69598 (Simulation time: 0 hr 49 min 38 sec) 
Heartbeat CPU 0 instructions: 97000002 cycles: 55123923 heartbeat IPC: 2.02423 cumulative IPC: 1.69914 (Simulation time: 0 hr 50 min 8 sec) 
Heartbeat CPU 0 instructions: 98000001 cycles: 55600987 heartbeat IPC: 2.09615 cumulative IPC: 1.70281 (Simulation time: 0 hr 50 min 37 sec) 
Heartbeat CPU 0 instructions: 99000001 cycles: 56149725 heartbeat IPC: 1.82236 cumulative IPC: 1.70406 (Simulation time: 0 hr 51 min 5 sec) 
Heartbeat CPU 0 instructions: 100000000 cycles: 56639948 heartbeat IPC: 2.03989 cumulative IPC: 1.70719 (Simulation time: 0 hr 51 min 31 sec) 
Heartbeat CPU 0 instructions: 101000001 cycles: 57128592 heartbeat IPC: 2.04648 cumulative IPC: 1.7103 (Simulation time: 0 hr 52 min 0 sec) 
Heartbeat CPU 0 instructions: 102000003 cycles: 57601444 heartbeat IPC: 2.11483 cumulative IPC: 1.71387 (Simulation time: 0 hr 52 min 29 sec) 
Heartbeat CPU 0 instructions: 103000003 cycles: 58138143 heartbeat IPC: 1.86324 cumulative IPC: 1.71535 (Simulation time: 0 hr 52 min 57 sec) 
Heartbeat CPU 0 instructions: 104000000 cycles: 58699270 heartbeat IPC: 1.78212 cumulative IPC: 1.71603 (Simulation time: 0 hr 53 min 29 sec) 
Heartbeat CPU 0 instructions: 105000001 cycles: 59126900 heartbeat IPC: 2.33847 cumulative IPC: 1.72085 (Simulation time: 0 hr 53 min 55 sec) 
Heartbeat CPU 0 instructions: 106000002 cycles: 59575651 heartbeat IPC: 2.22841 cumulative IPC: 1.72494 (Simulation time: 0 hr 54 min 19 sec) 
Heartbeat CPU 0 instructions: 107000001 cycles: 60028842 heartbeat IPC: 2.20657 cumulative IPC: 1.72883 (Simulation time: 0 hr 54 min 44 sec) 
Heartbeat CPU 0 instructions: 108000000 cycles: 60447897 heartbeat IPC: 2.38632 cumulative IPC: 1.73371 (Simulation time: 0 hr 55 min 10 sec) 
Heartbeat CPU 0 instructions: 109000000 cycles: 60925178 heartbeat IPC: 2.0952 cumulative IPC: 1.73673 (Simulation time: 0 hr 55 min 36 sec) 
Heartbeat CPU 0 instructions: 110000000 cycles: 61343889 heartbeat IPC: 2.38828 cumulative IPC: 1.74149 (Simulation time: 0 hr 56 min 2 sec) 
Finished CPU 0 instructions: 100000000 cycles: 57422227 cummulative IPC: 1.74149 (Simulation time: 0 hr 56 min 2 sec) 

ChampSim completed all CPUs

Region of Interest Statistics

CPU 0 cummulative IPC: 1.74149 instructions: 100000000 cycles: 57422227
LLC TOTAL     ACCESS:     865133  HIT:     194501  MISS:     670632
LLC LOAD      ACCESS:     110529  HIT:      90034  MISS:      20495
LLC RFO       ACCESS:        413  HIT:        407  MISS:          6
LLC PREFETCH  ACCESS:     655879  HIT:      48634  MISS:     607245
LLC WRITEBACK ACCESS:      98312  HIT:      55426  MISS:      42886
