
*** ChampSim Multicore Out-of-Order Simulator ***

Warmup Instructions: 10000000
Simulation Instructions: 100000000
Configuration: 2
Number of CPUs: 1
LLC sets: 2048
LLC ways: 16
Off-chip DRAM Channels: 1 Width: 64-bit Data Rate: 1600 MT/s

CPU 0 runs /datasets/cs240c-wi22-a00-public/data/Assignment2-gz/sphinx3_1339B.trace.gz
CPU 0 L1D next line prefetcher
CPU 0 L2C IP-based stride prefetcher
Heartbeat CPU 0 instructions: 1000000 cycles: 339022 heartbeat IPC: 2.94966 cumulative IPC: 2.94966 (Simulation time: 0 hr 0 min 33 sec) 
Heartbeat CPU 0 instructions: 2000001 cycles: 693421 heartbeat IPC: 2.82168 cumulative IPC: 2.88425 (Simulation time: 0 hr 1 min 4 sec) 
Heartbeat CPU 0 instructions: 3000000 cycles: 1084511 heartbeat IPC: 2.55695 cumulative IPC: 2.76622 (Simulation time: 0 hr 1 min 35 sec) 
Heartbeat CPU 0 instructions: 4000000 cycles: 1530043 heartbeat IPC: 2.24451 cumulative IPC: 2.61431 (Simulation time: 0 hr 2 min 5 sec) 
Heartbeat CPU 0 instructions: 5000003 cycles: 1869062 heartbeat IPC: 2.9497 cumulative IPC: 2.67514 (Simulation time: 0 hr 2 min 32 sec) 
Heartbeat CPU 0 instructions: 6000002 cycles: 2253262 heartbeat IPC: 2.60281 cumulative IPC: 2.66281 (Simulation time: 0 hr 3 min 7 sec) 
Heartbeat CPU 0 instructions: 7000001 cycles: 2717189 heartbeat IPC: 2.15551 cumulative IPC: 2.57619 (Simulation time: 0 hr 3 min 40 sec) 
Heartbeat CPU 0 instructions: 8000000 cycles: 3056061 heartbeat IPC: 2.95096 cumulative IPC: 2.61775 (Simulation time: 0 hr 4 min 13 sec) 
Heartbeat CPU 0 instructions: 9000003 cycles: 3412634 heartbeat IPC: 2.80448 cumulative IPC: 2.63726 (Simulation time: 0 hr 4 min 41 sec) 
Heartbeat CPU 0 instructions: 10000001 cycles: 3799554 heartbeat IPC: 2.58451 cumulative IPC: 2.63189 (Simulation time: 0 hr 5 min 13 sec) 

Warmup complete CPU 0 instructions: 10000001 cycles: 3799554 (Simulation time: 0 hr 5 min 13 sec) 

Heartbeat CPU 0 instructions: 11000001 cycles: 4718079 heartbeat IPC: 1.0887 cumulative IPC: 1.0887 (Simulation time: 0 hr 5 min 48 sec) 
Heartbeat CPU 0 instructions: 12000000 cycles: 5610166 heartbeat IPC: 1.12097 cumulative IPC: 1.1046 (Simulation time: 0 hr 6 min 23 sec) 
Heartbeat CPU 0 instructions: 13000000 cycles: 6966312 heartbeat IPC: 0.737384 cumulative IPC: 0.947341 (Simulation time: 0 hr 6 min 56 sec) 
Heartbeat CPU 0 instructions: 14000000 cycles: 7872601 heartbeat IPC: 1.1034 cumulative IPC: 0.982065 (Simulation time: 0 hr 7 min 28 sec) 
Heartbeat CPU 0 instructions: 15000001 cycles: 8768709 heartbeat IPC: 1.11594 cumulative IPC: 1.00621 (Simulation time: 0 hr 7 min 59 sec) 
Heartbeat CPU 0 instructions: 16000000 cycles: 9868063 heartbeat IPC: 0.909624 cumulative IPC: 0.988711 (Simulation time: 0 hr 8 min 34 sec) 
Heartbeat CPU 0 instructions: 17000001 cycles: 11229323 heartbeat IPC: 0.734614 cumulative IPC: 0.942156 (Simulation time: 0 hr 9 min 9 sec) 
Heartbeat CPU 0 instructions: 18000003 cycles: 12301952 heartbeat IPC: 0.932291 cumulative IPC: 0.940911 (Simulation time: 0 hr 9 min 48 sec) 
Heartbeat CPU 0 instructions: 19000002 cycles: 13174399 heartbeat IPC: 1.1462 cumulative IPC: 0.960016 (Simulation time: 0 hr 10 min 23 sec) 
Heartbeat CPU 0 instructions: 20000000 cycles: 14064676 heartbeat IPC: 1.12324 cumulative IPC: 0.974172 (Simulation time: 0 hr 10 min 57 sec) 
Heartbeat CPU 0 instructions: 21000000 cycles: 15316795 heartbeat IPC: 0.798646 cumulative IPC: 0.95509 (Simulation time: 0 hr 11 min 33 sec) 
Heartbeat CPU 0 instructions: 22000000 cycles: 16325051 heartbeat IPC: 0.991812 cumulative IPC: 0.958046 (Simulation time: 0 hr 12 min 5 sec) 
Heartbeat CPU 0 instructions: 23000003 cycles: 17192538 heartbeat IPC: 1.15276 cumulative IPC: 0.970658 (Simulation time: 0 hr 12 min 39 sec) 
Heartbeat CPU 0 instructions: 24000000 cycles: 18163721 heartbeat IPC: 1.02967 cumulative IPC: 0.974647 (Simulation time: 0 hr 13 min 14 sec) 
Heartbeat CPU 0 instructions: 25000001 cycles: 19133759 heartbeat IPC: 1.03089 cumulative IPC: 0.978205 (Simulation time: 0 hr 13 min 50 sec) 
Heartbeat CPU 0 instructions: 26000003 cycles: 19972090 heartbeat IPC: 1.19285 cumulative IPC: 0.989332 (Simulation time: 0 hr 14 min 21 sec) 
Heartbeat CPU 0 instructions: 27000002 cycles: 20829017 heartbeat IPC: 1.16696 cumulative IPC: 0.99827 (Simulation time: 0 hr 14 min 57 sec) 
Heartbeat CPU 0 instructions: 28000000 cycles: 21810716 heartbeat IPC: 1.01864 cumulative IPC: 0.99938 (Simulation time: 0 hr 15 min 32 sec) 
Heartbeat CPU 0 instructions: 29000003 cycles: 22642961 heartbeat IPC: 1.20157 cumulative IPC: 1.00831 (Simulation time: 0 hr 16 min 3 sec) 
Heartbeat CPU 0 instructions: 30000003 cycles: 23474254 heartbeat IPC: 1.20295 cumulative IPC: 1.01653 (Simulation time: 0 hr 16 min 37 sec) 
Heartbeat CPU 0 instructions: 31000002 cycles: 24421324 heartbeat IPC: 1.05589 cumulative IPC: 1.01834 (Simulation time: 0 hr 17 min 10 sec) 
Heartbeat CPU 0 instructions: 32000000 cycles: 25299300 heartbeat IPC: 1.13898 cumulative IPC: 1.02327 (Simulation time: 0 hr 17 min 47 sec) 
Heartbeat CPU 0 instructions: 33000001 cycles: 26130370 heartbeat IPC: 1.20327 cumulative IPC: 1.02997 (Simulation time: 0 hr 18 min 22 sec) 
Heartbeat CPU 0 instructions: 34000001 cycles: 27534111 heartbeat IPC: 0.712382 cumulative IPC: 1.01118 (Simulation time: 0 hr 18 min 56 sec) 
Heartbeat CPU 0 instructions: 35000002 cycles: 28455165 heartbeat IPC: 1.08571 cumulative IPC: 1.01397 (Simulation time: 0 hr 19 min 30 sec) 
Heartbeat CPU 0 instructions: 36000000 cycles: 29322574 heartbeat IPC: 1.15286 cumulative IPC: 1.01869 (Simulation time: 0 hr 20 min 4 sec) 
Heartbeat CPU 0 instructions: 37000003 cycles: 30353017 heartbeat IPC: 0.970459 cumulative IPC: 1.01682 (Simulation time: 0 hr 20 min 36 sec) 
Heartbeat CPU 0 instructions: 38000000 cycles: 31539334 heartbeat IPC: 0.842942 cumulative IPC: 1.00938 (Simulation time: 0 hr 21 min 9 sec) 
Heartbeat CPU 0 instructions: 39000000 cycles: 32418594 heartbeat IPC: 1.13732 cumulative IPC: 1.01331 (Simulation time: 0 hr 21 min 46 sec) 
Heartbeat CPU 0 instructions: 40000000 cycles: 33255710 heartbeat IPC: 1.19458 cumulative IPC: 1.01846 (Simulation time: 0 hr 22 min 22 sec) 
Heartbeat CPU 0 instructions: 41000000 cycles: 34512487 heartbeat IPC: 0.795686 cumulative IPC: 1.00935 (Simulation time: 0 hr 22 min 57 sec) 
Heartbeat CPU 0 instructions: 42000002 cycles: 35400792 heartbeat IPC: 1.12574 cumulative IPC: 1.01262 (Simulation time: 0 hr 23 min 29 sec) 
Heartbeat CPU 0 instructions: 43000001 cycles: 36254044 heartbeat IPC: 1.17199 cumulative IPC: 1.01681 (Simulation time: 0 hr 24 min 2 sec) 
Heartbeat CPU 0 instructions: 44000000 cycles: 37330291 heartbeat IPC: 0.929154 cumulative IPC: 1.01399 (Simulation time: 0 hr 24 min 37 sec) 
Heartbeat CPU 0 instructions: 45000002 cycles: 38355182 heartbeat IPC: 0.975715 cumulative IPC: 1.01286 (Simulation time: 0 hr 25 min 9 sec) 
Heartbeat CPU 0 instructions: 46000003 cycles: 39181216 heartbeat IPC: 1.21061 cumulative IPC: 1.01748 (Simulation time: 0 hr 25 min 40 sec) 
Heartbeat CPU 0 instructions: 47000001 cycles: 40025743 heartbeat IPC: 1.18409 cumulative IPC: 1.02136 (Simulation time: 0 hr 26 min 13 sec) 
Heartbeat CPU 0 instructions: 48000000 cycles: 41042954 heartbeat IPC: 0.983079 cumulative IPC: 1.02031 (Simulation time: 0 hr 26 min 46 sec) 
Heartbeat CPU 0 instructions: 49000000 cycles: 41892017 heartbeat IPC: 1.17777 cumulative IPC: 1.02382 (Simulation time: 0 hr 27 min 20 sec) 
Heartbeat CPU 0 instructions: 50000003 cycles: 42714124 heartbeat IPC: 1.21639 cumulative IPC: 1.02789 (Simulation time: 0 hr 27 min 52 sec) 
Heartbeat CPU 0 instructions: 51000001 cycles: 43935476 heartbeat IPC: 0.818763 cumulative IPC: 1.02153 (Simulation time: 0 hr 28 min 25 sec) 
Heartbeat CPU 0 instructions: 52000000 cycles: 44779177 heartbeat IPC: 1.18525 cumulative IPC: 1.0249 (Simulation time: 0 hr 28 min 54 sec) 
Heartbeat CPU 0 instructions: 53000002 cycles: 45611250 heartbeat IPC: 1.20182 cumulative IPC: 1.02842 (Simulation time: 0 hr 29 min 25 sec) 
Heartbeat CPU 0 instructions: 54000003 cycles: 46775675 heartbeat IPC: 0.858794 cumulative IPC: 1.02382 (Simulation time: 0 hr 30 min 1 sec) 
Heartbeat CPU 0 instructions: 55000001 cycles: 47692343 heartbeat IPC: 1.09091 cumulative IPC: 1.02523 (Simulation time: 0 hr 30 min 33 sec) 
Heartbeat CPU 0 instructions: 56000000 cycles: 48537149 heartbeat IPC: 1.1837 cumulative IPC: 1.02822 (Simulation time: 0 hr 31 min 7 sec) 
Heartbeat CPU 0 instructions: 57000000 cycles: 49518001 heartbeat IPC: 1.01952 cumulative IPC: 1.02803 (Simulation time: 0 hr 31 min 44 sec) 
Heartbeat CPU 0 instructions: 58000000 cycles: 50629984 heartbeat IPC: 0.899294 cumulative IPC: 1.02497 (Simulation time: 0 hr 32 min 16 sec) 
Heartbeat CPU 0 instructions: 59000001 cycles: 51462061 heartbeat IPC: 1.20181 cumulative IPC: 1.02806 (Simulation time: 0 hr 32 min 50 sec) 
Heartbeat CPU 0 instructions: 60000000 cycles: 52293044 heartbeat IPC: 1.20339 cumulative IPC: 1.03107 (Simulation time: 0 hr 33 min 25 sec) 
Heartbeat CPU 0 instructions: 61000000 cycles: 53637053 heartbeat IPC: 0.744043 cumulative IPC: 1.02333 (Simulation time: 0 hr 33 min 58 sec) 
Heartbeat CPU 0 instructions: 62000002 cycles: 54777291 heartbeat IPC: 0.877012 cumulative IPC: 1.02005 (Simulation time: 0 hr 34 min 30 sec) 
Heartbeat CPU 0 instructions: 63000003 cycles: 55617486 heartbeat IPC: 1.1902 cumulative IPC: 1.02281 (Simulation time: 0 hr 35 min 4 sec) 
Heartbeat CPU 0 instructions: 64000000 cycles: 56450419 heartbeat IPC: 1.20057 cumulative IPC: 1.02562 (Simulation time: 0 hr 35 min 34 sec) 
Heartbeat CPU 0 instructions: 65000000 cycles: 57530027 heartbeat IPC: 0.926262 cumulative IPC: 1.02363 (Simulation time: 0 hr 36 min 7 sec) 
Heartbeat CPU 0 instructions: 66000001 cycles: 58517902 heartbeat IPC: 1.01227 cumulative IPC: 1.02342 (Simulation time: 0 hr 36 min 40 sec) 
Heartbeat CPU 0 instructions: 67000000 cycles: 59347781 heartbeat IPC: 1.20499 cumulative IPC: 1.02614 (Simulation time: 0 hr 37 min 11 sec) 
Heartbeat CPU 0 instructions: 68000000 cycles: 60239949 heartbeat IPC: 1.12087 cumulative IPC: 1.02763 (Simulation time: 0 hr 37 min 42 sec) 
Heartbeat CPU 0 instructions: 69000003 cycles: 61384040 heartbeat IPC: 0.874059 cumulative IPC: 1.02458 (Simulation time: 0 hr 38 min 19 sec) 
Heartbeat CPU 0 instructions: 70000001 cycles: 62241965 heartbeat IPC: 1.1656 cumulative IPC: 1.02665 (Simulation time: 0 hr 38 min 54 sec) 
Heartbeat CPU 0 instructions: 71000001 cycles: 63066039 heartbeat IPC: 1.21348 cumulative IPC: 1.02925 (Simulation time: 0 hr 39 min 30 sec) 
Heartbeat CPU 0 instructions: 72000000 cycles: 64288196 heartbeat IPC: 0.818225 cumulative IPC: 1.02499 (Simulation time: 0 hr 40 min 5 sec) 
Heartbeat CPU 0 instructions: 73000001 cycles: 65135741 heartbeat IPC: 1.17988 cumulative IPC: 1.02713 (Simulation time: 0 hr 40 min 36 sec) 
Heartbeat CPU 0 instructions: 74000001 cycles: 65965037 heartbeat IPC: 1.20584 cumulative IPC: 1.02951 (Simulation time: 0 hr 41 min 11 sec) 
Heartbeat CPU 0 instructions: 75000003 cycles: 67065824 heartbeat IPC: 0.908443 cumulative IPC: 1.0274 (Simulation time: 0 hr 41 min 44 sec) 
Heartbeat CPU 0 instructions: 76000000 cycles: 68009570 heartbeat IPC: 1.0596 cumulative IPC: 1.02788 (Simulation time: 0 hr 42 min 15 sec) 
Heartbeat CPU 0 instructions: 77000002 cycles: 68841919 heartbeat IPC: 1.20142 cumulative IPC: 1.0301 (Simulation time: 0 hr 42 min 47 sec) 
Heartbeat CPU 0 instructions: 78000002 cycles: 69762812 heartbeat IPC: 1.0859 cumulative IPC: 1.03088 (Simulation time: 0 hr 43 min 23 sec) 
Heartbeat CPU 0 instructions: 79000001 cycles: 70855035 heartbeat IPC: 0.915563 cumulative IPC: 1.029 (Simulation time: 0 hr 44 min 3 sec) 
Heartbeat CPU 0 instructions: 80000000 cycles: 71713068 heartbeat IPC: 1.16546 cumulative IPC: 1.03072 (Simulation time: 0 hr 44 min 37 sec) 
Heartbeat CPU 0 instructions: 81000003 cycles: 72542736 heartbeat IPC: 1.2053 cumulative IPC: 1.03283 (Simulation time: 0 hr 45 min 5 sec) 
Heartbeat CPU 0 instructions: 82000000 cycles: 73731341 heartbeat IPC: 0.84132 cumulative IPC: 1.02957 (Simulation time: 0 hr 45 min 39 sec) 
Heartbeat CPU 0 instructions: 83000001 cycles: 74584802 heartbeat IPC: 1.1717 cumulative IPC: 1.03129 (Simulation time: 0 hr 46 min 16 sec) 
Heartbeat CPU 0 instructions: 84000000 cycles: 75415263 heartbeat IPC: 1.20415 cumulative IPC: 1.03329 (Simulation time: 0 hr 46 min 54 sec) 
Heartbeat CPU 0 instructions: 85000002 cycles: 76570070 heartbeat IPC: 0.865947 cumulative IPC: 1.03064 (Simulation time: 0 hr 47 min 33 sec) 
Heartbeat CPU 0 instructions: 86000003 cycles: 77468877 heartbeat IPC: 1.11259 cumulative IPC: 1.03164 (Simulation time: 0 hr 48 min 8 sec) 
Heartbeat CPU 0 instructions: 87000001 cycles: 78302650 heartbeat IPC: 1.19936 cumulative IPC: 1.03351 (Simulation time: 0 hr 48 min 40 sec) 
Heartbeat CPU 0 instructions: 88000000 cycles: 79319536 heartbeat IPC: 0.983393 cumulative IPC: 1.03284 (Simulation time: 0 hr 49 min 16 sec) 
Heartbeat CPU 0 instructions: 89000000 cycles: 80346711 heartbeat IPC: 0.973544 cumulative IPC: 1.03204 (Simulation time: 0 hr 49 min 54 sec) 
Heartbeat CPU 0 instructions: 90000003 cycles: 81173063 heartbeat IPC: 1.21014 cumulative IPC: 1.03395 (Simulation time: 0 hr 50 min 23 sec) 
Heartbeat CPU 0 instructions: 91000000 cycles: 82012593 heartbeat IPC: 1.19114 cumulative IPC: 1.03563 (Simulation time: 0 hr 50 min 58 sec) 
Heartbeat CPU 0 instructions: 92000000 cycles: 83212501 heartbeat IPC: 0.833397 cumulative IPC: 1.03258 (Simulation time: 0 hr 51 min 30 sec) 
Heartbeat CPU 0 instructions: 93000001 cycles: 84062690 heartbeat IPC: 1.17621 cumulative IPC: 1.0341 (Simulation time: 0 hr 52 min 8 sec) 
Heartbeat CPU 0 instructions: 94000001 cycles: 84887787 heartbeat IPC: 1.21198 cumulative IPC: 1.03591 (Simulation time: 0 hr 52 min 40 sec) 
Heartbeat CPU 0 instructions: 95000002 cycles: 86113783 heartbeat IPC: 0.815664 cumulative IPC: 1.03263 (Simulation time: 0 hr 53 min 14 sec) 
Heartbeat CPU 0 instructions: 96000000 cycles: 86976100 heartbeat IPC: 1.15966 cumulative IPC: 1.03395 (Simulation time: 0 hr 53 min 47 sec) 
Heartbeat CPU 0 instructions: 97000002 cycles: 87808618 heartbeat IPC: 1.20118 cumulative IPC: 1.0356 (Simulation time: 0 hr 54 min 14 sec) 
Heartbeat CPU 0 instructions: 98000000 cycles: 88906313 heartbeat IPC: 0.910998 cumulative IPC: 1.034 (Simulation time: 0 hr 54 min 43 sec) 
Heartbeat CPU 0 instructions: 99000003 cycles: 90018066 heartbeat IPC: 0.899483 cumulative IPC: 1.03226 (Simulation time: 0 hr 55 min 11 sec) 
Heartbeat CPU 0 instructions: 100000000 cycles: 90864766 heartbeat IPC: 1.18105 cumulative IPC: 1.03371 (Simulation time: 0 hr 55 min 40 sec) 
Heartbeat CPU 0 instructions: 101000000 cycles: 91710382 heartbeat IPC: 1.18257 cumulative IPC: 1.03514 (Simulation time: 0 hr 56 min 14 sec) 
Heartbeat CPU 0 instructions: 102000001 cycles: 93185748 heartbeat IPC: 0.677799 cumulative IPC: 1.02924 (Simulation time: 0 hr 56 min 49 sec) 
Heartbeat CPU 0 instructions: 103000000 cycles: 94434997 heartbeat IPC: 0.80048 cumulative IPC: 1.02609 (Simulation time: 0 hr 57 min 23 sec) 
Heartbeat CPU 0 instructions: 104000000 cycles: 95382641 heartbeat IPC: 1.05525 cumulative IPC: 1.02639 (Simulation time: 0 hr 57 min 51 sec) 
Heartbeat CPU 0 instructions: 105000003 cycles: 96213448 heartbeat IPC: 1.20365 cumulative IPC: 1.02798 (Simulation time: 0 hr 58 min 20 sec) 
Heartbeat CPU 0 instructions: 106000000 cycles: 97079885 heartbeat IPC: 1.15415 cumulative IPC: 1.02916 (Simulation time: 0 hr 58 min 49 sec) 
Heartbeat CPU 0 instructions: 107000001 cycles: 98573451 heartbeat IPC: 0.669539 cumulative IPC: 1.02349 (Simulation time: 0 hr 59 min 20 sec) 
Heartbeat CPU 0 instructions: 108000000 cycles: 99487064 heartbeat IPC: 1.09455 cumulative IPC: 1.02417 (Simulation time: 0 hr 59 min 48 sec) 
Heartbeat CPU 0 instructions: 109000000 cycles: 100323860 heartbeat IPC: 1.19503 cumulative IPC: 1.02565 (Simulation time: 1 hr 0 min 20 sec) 
Heartbeat CPU 0 instructions: 110000000 cycles: 101457337 heartbeat IPC: 0.882241 cumulative IPC: 1.02398 (Simulation time: 1 hr 0 min 49 sec) 
Finished CPU 0 instructions: 100000000 cycles: 97657785 cummulative IPC: 1.02398 (Simulation time: 1 hr 0 min 49 sec) 

ChampSim completed all CPUs

Region of Interest Statistics

CPU 0 cummulative IPC: 1.02398 instructions: 100000000 cycles: 97657785
LLC TOTAL     ACCESS:    1574042  HIT:     547050  MISS:    1026992
LLC LOAD      ACCESS:     202291  HIT:     171126  MISS:      31165
LLC RFO       ACCESS:     111381  HIT:     109673  MISS:       1708
LLC PREFETCH  ACCESS:    1127211  HIT:     133969  MISS:     993242
LLC WRITEBACK ACCESS:     133159  HIT:     132282  MISS:        877
