
*** ChampSim Multicore Out-of-Order Simulator ***

Warmup Instructions: 10000000
Simulation Instructions: 100000000
Configuration: 2
Number of CPUs: 1
LLC sets: 2048
LLC ways: 16
Off-chip DRAM Channels: 1 Width: 64-bit Data Rate: 1600 MT/s

CPU 0 runs /datasets/cs240c-wi22-a00-public/data/Assignment2-gz/libquantum_1735B.trace.gz
CPU 0 L1D next line prefetcher
CPU 0 L2C IP-based stride prefetcher
Heartbeat CPU 0 instructions: 1000001 cycles: 333341 heartbeat IPC: 2.99993 cumulative IPC: 2.99993 (Simulation time: 0 hr 0 min 24 sec) 
Heartbeat CPU 0 instructions: 2000000 cycles: 666674 heartbeat IPC: 3 cumulative IPC: 2.99997 (Simulation time: 0 hr 0 min 54 sec) 
Heartbeat CPU 0 instructions: 3000000 cycles: 989045 heartbeat IPC: 3.10202 cumulative IPC: 3.03323 (Simulation time: 0 hr 1 min 20 sec) 
Heartbeat CPU 0 instructions: 4000000 cycles: 1290770 heartbeat IPC: 3.31428 cumulative IPC: 3.09893 (Simulation time: 0 hr 1 min 37 sec) 
Heartbeat CPU 0 instructions: 5000001 cycles: 1592495 heartbeat IPC: 3.31428 cumulative IPC: 3.13973 (Simulation time: 0 hr 1 min 58 sec) 
Heartbeat CPU 0 instructions: 6000001 cycles: 1894219 heartbeat IPC: 3.31429 cumulative IPC: 3.16753 (Simulation time: 0 hr 2 min 18 sec) 
Heartbeat CPU 0 instructions: 7000002 cycles: 2195942 heartbeat IPC: 3.3143 cumulative IPC: 3.1877 (Simulation time: 0 hr 2 min 35 sec) 
Heartbeat CPU 0 instructions: 8000000 cycles: 2501897 heartbeat IPC: 3.26845 cumulative IPC: 3.19757 (Simulation time: 0 hr 2 min 53 sec) 
Heartbeat CPU 0 instructions: 9000000 cycles: 2835230 heartbeat IPC: 3 cumulative IPC: 3.17435 (Simulation time: 0 hr 3 min 10 sec) 
Heartbeat CPU 0 instructions: 10000002 cycles: 3168564 heartbeat IPC: 3 cumulative IPC: 3.156 (Simulation time: 0 hr 3 min 27 sec) 

Warmup complete CPU 0 instructions: 10000002 cycles: 3168564 (Simulation time: 0 hr 3 min 27 sec) 

Heartbeat CPU 0 instructions: 11000001 cycles: 4593870 heartbeat IPC: 0.701603 cumulative IPC: 0.701603 (Simulation time: 0 hr 4 min 4 sec) 
Heartbeat CPU 0 instructions: 12000000 cycles: 6018722 heartbeat IPC: 0.701827 cumulative IPC: 0.701715 (Simulation time: 0 hr 4 min 38 sec) 
Heartbeat CPU 0 instructions: 13000001 cycles: 7839469 heartbeat IPC: 0.549226 cumulative IPC: 0.642274 (Simulation time: 0 hr 5 min 15 sec) 
Heartbeat CPU 0 instructions: 14000000 cycles: 10329191 heartbeat IPC: 0.401651 cumulative IPC: 0.55861 (Simulation time: 0 hr 5 min 44 sec) 
Heartbeat CPU 0 instructions: 15000000 cycles: 12811762 heartbeat IPC: 0.402808 cumulative IPC: 0.5185 (Simulation time: 0 hr 6 min 15 sec) 
Heartbeat CPU 0 instructions: 16000000 cycles: 15280521 heartbeat IPC: 0.405062 cumulative IPC: 0.495378 (Simulation time: 0 hr 6 min 43 sec) 
Heartbeat CPU 0 instructions: 17000002 cycles: 17765211 heartbeat IPC: 0.402465 cumulative IPC: 0.479562 (Simulation time: 0 hr 7 min 13 sec) 
Heartbeat CPU 0 instructions: 18000001 cycles: 19933295 heartbeat IPC: 0.461236 cumulative IPC: 0.477192 (Simulation time: 0 hr 7 min 49 sec) 
Heartbeat CPU 0 instructions: 19000000 cycles: 21432876 heartbeat IPC: 0.666852 cumulative IPC: 0.492764 (Simulation time: 0 hr 8 min 24 sec) 
Heartbeat CPU 0 instructions: 20000000 cycles: 22932378 heartbeat IPC: 0.666888 cumulative IPC: 0.505975 (Simulation time: 0 hr 9 min 0 sec) 
Heartbeat CPU 0 instructions: 21000001 cycles: 24432008 heartbeat IPC: 0.666832 cumulative IPC: 0.51732 (Simulation time: 0 hr 9 min 30 sec) 
Heartbeat CPU 0 instructions: 22000000 cycles: 25931514 heartbeat IPC: 0.666886 cumulative IPC: 0.527172 (Simulation time: 0 hr 10 min 4 sec) 
Heartbeat CPU 0 instructions: 23000000 cycles: 28138226 heartbeat IPC: 0.453163 cumulative IPC: 0.520632 (Simulation time: 0 hr 10 min 33 sec) 
Heartbeat CPU 0 instructions: 24000000 cycles: 30785621 heartbeat IPC: 0.37773 cumulative IPC: 0.506933 (Simulation time: 0 hr 10 min 56 sec) 
Heartbeat CPU 0 instructions: 25000000 cycles: 33439347 heartbeat IPC: 0.376829 cumulative IPC: 0.495527 (Simulation time: 0 hr 11 min 26 sec) 
Heartbeat CPU 0 instructions: 26000000 cycles: 36088195 heartbeat IPC: 0.377523 cumulative IPC: 0.486032 (Simulation time: 0 hr 11 min 56 sec) 
Heartbeat CPU 0 instructions: 27000001 cycles: 38754518 heartbeat IPC: 0.375049 cumulative IPC: 0.477717 (Simulation time: 0 hr 12 min 22 sec) 
Heartbeat CPU 0 instructions: 28000000 cycles: 40723247 heartbeat IPC: 0.507941 cumulative IPC: 0.479301 (Simulation time: 0 hr 12 min 49 sec) 
Heartbeat CPU 0 instructions: 29000000 cycles: 42145189 heartbeat IPC: 0.703264 cumulative IPC: 0.487472 (Simulation time: 0 hr 13 min 21 sec) 
Heartbeat CPU 0 instructions: 30000001 cycles: 43567010 heartbeat IPC: 0.703324 cumulative IPC: 0.495069 (Simulation time: 0 hr 13 min 52 sec) 
Heartbeat CPU 0 instructions: 31000000 cycles: 44988905 heartbeat IPC: 0.703286 cumulative IPC: 0.502148 (Simulation time: 0 hr 14 min 23 sec) 
Heartbeat CPU 0 instructions: 32000000 cycles: 46410721 heartbeat IPC: 0.703326 cumulative IPC: 0.508763 (Simulation time: 0 hr 14 min 56 sec) 
Heartbeat CPU 0 instructions: 33000002 cycles: 48454997 heartbeat IPC: 0.489172 cumulative IPC: 0.507878 (Simulation time: 0 hr 15 min 27 sec) 
Heartbeat CPU 0 instructions: 34000000 cycles: 50633222 heartbeat IPC: 0.459088 cumulative IPC: 0.505639 (Simulation time: 0 hr 15 min 55 sec) 
Heartbeat CPU 0 instructions: 35000000 cycles: 52794295 heartbeat IPC: 0.462733 cumulative IPC: 0.503771 (Simulation time: 0 hr 16 min 21 sec) 
Heartbeat CPU 0 instructions: 36000000 cycles: 54963013 heartbeat IPC: 0.461102 cumulative IPC: 0.501984 (Simulation time: 0 hr 16 min 47 sec) 
Heartbeat CPU 0 instructions: 37000002 cycles: 57138692 heartbeat IPC: 0.459628 cumulative IPC: 0.500277 (Simulation time: 0 hr 17 min 14 sec) 
Heartbeat CPU 0 instructions: 38000003 cycles: 58847360 heartbeat IPC: 0.585252 cumulative IPC: 0.502884 (Simulation time: 0 hr 17 min 44 sec) 
Heartbeat CPU 0 instructions: 39000000 cycles: 60258766 heartbeat IPC: 0.708511 cumulative IPC: 0.507968 (Simulation time: 0 hr 18 min 19 sec) 
Heartbeat CPU 0 instructions: 40000000 cycles: 61670238 heartbeat IPC: 0.70848 cumulative IPC: 0.512806 (Simulation time: 0 hr 18 min 51 sec) 
Heartbeat CPU 0 instructions: 41000000 cycles: 63081764 heartbeat IPC: 0.708453 cumulative IPC: 0.517415 (Simulation time: 0 hr 19 min 20 sec) 
Heartbeat CPU 0 instructions: 42000001 cycles: 64493169 heartbeat IPC: 0.708515 cumulative IPC: 0.521813 (Simulation time: 0 hr 19 min 51 sec) 
Heartbeat CPU 0 instructions: 43000000 cycles: 66561314 heartbeat IPC: 0.483525 cumulative IPC: 0.520564 (Simulation time: 0 hr 20 min 22 sec) 
Heartbeat CPU 0 instructions: 44000000 cycles: 68719319 heartbeat IPC: 0.463391 cumulative IPC: 0.518682 (Simulation time: 0 hr 20 min 49 sec) 
Heartbeat CPU 0 instructions: 45000001 cycles: 70878758 heartbeat IPC: 0.463084 cumulative IPC: 0.516909 (Simulation time: 0 hr 21 min 16 sec) 
Heartbeat CPU 0 instructions: 46000002 cycles: 73030887 heartbeat IPC: 0.464657 cumulative IPC: 0.515299 (Simulation time: 0 hr 21 min 43 sec) 
Heartbeat CPU 0 instructions: 47000000 cycles: 75198406 heartbeat IPC: 0.461356 cumulative IPC: 0.513676 (Simulation time: 0 hr 22 min 13 sec) 
Heartbeat CPU 0 instructions: 48000000 cycles: 76935775 heartbeat IPC: 0.575583 cumulative IPC: 0.515134 (Simulation time: 0 hr 22 min 44 sec) 
Heartbeat CPU 0 instructions: 49000002 cycles: 78455367 heartbeat IPC: 0.658073 cumulative IPC: 0.518019 (Simulation time: 0 hr 23 min 14 sec) 
Heartbeat CPU 0 instructions: 50000001 cycles: 79974835 heartbeat IPC: 0.658124 cumulative IPC: 0.520791 (Simulation time: 0 hr 23 min 44 sec) 
Heartbeat CPU 0 instructions: 51000000 cycles: 81494406 heartbeat IPC: 0.65808 cumulative IPC: 0.523454 (Simulation time: 0 hr 24 min 14 sec) 
Heartbeat CPU 0 instructions: 52000000 cycles: 83014080 heartbeat IPC: 0.658036 cumulative IPC: 0.526016 (Simulation time: 0 hr 24 min 42 sec) 
Heartbeat CPU 0 instructions: 53000002 cycles: 84533524 heartbeat IPC: 0.658137 cumulative IPC: 0.528483 (Simulation time: 0 hr 25 min 13 sec) 
Heartbeat CPU 0 instructions: 54000001 cycles: 86052664 heartbeat IPC: 0.658267 cumulative IPC: 0.530862 (Simulation time: 0 hr 25 min 43 sec) 
Heartbeat CPU 0 instructions: 55000000 cycles: 87570110 heartbeat IPC: 0.659001 cumulative IPC: 0.533166 (Simulation time: 0 hr 26 min 17 sec) 
Heartbeat CPU 0 instructions: 56000000 cycles: 89089357 heartbeat IPC: 0.658221 cumulative IPC: 0.535377 (Simulation time: 0 hr 26 min 52 sec) 
Heartbeat CPU 0 instructions: 57000000 cycles: 90608950 heartbeat IPC: 0.658071 cumulative IPC: 0.537509 (Simulation time: 0 hr 27 min 27 sec) 
Heartbeat CPU 0 instructions: 58000002 cycles: 92128421 heartbeat IPC: 0.658125 cumulative IPC: 0.539569 (Simulation time: 0 hr 28 min 3 sec) 
Heartbeat CPU 0 instructions: 59000001 cycles: 93647967 heartbeat IPC: 0.658091 cumulative IPC: 0.54156 (Simulation time: 0 hr 28 min 35 sec) 
Heartbeat CPU 0 instructions: 60000000 cycles: 95167431 heartbeat IPC: 0.658126 cumulative IPC: 0.543485 (Simulation time: 0 hr 29 min 4 sec) 
Heartbeat CPU 0 instructions: 61000003 cycles: 96687051 heartbeat IPC: 0.658061 cumulative IPC: 0.545347 (Simulation time: 0 hr 29 min 34 sec) 
Heartbeat CPU 0 instructions: 62000002 cycles: 98203563 heartbeat IPC: 0.659407 cumulative IPC: 0.547167 (Simulation time: 0 hr 30 min 13 sec) 
Heartbeat CPU 0 instructions: 63000001 cycles: 99675948 heartbeat IPC: 0.67917 cumulative IPC: 0.549181 (Simulation time: 0 hr 30 min 43 sec) 
Heartbeat CPU 0 instructions: 64000000 cycles: 101160435 heartbeat IPC: 0.673633 cumulative IPC: 0.551066 (Simulation time: 0 hr 31 min 21 sec) 
Heartbeat CPU 0 instructions: 65000001 cycles: 102679923 heartbeat IPC: 0.658117 cumulative IPC: 0.552701 (Simulation time: 0 hr 31 min 52 sec) 
Heartbeat CPU 0 instructions: 66000000 cycles: 104191057 heartbeat IPC: 0.661754 cumulative IPC: 0.554332 (Simulation time: 0 hr 32 min 22 sec) 
Heartbeat CPU 0 instructions: 67000001 cycles: 105660870 heartbeat IPC: 0.680359 cumulative IPC: 0.556139 (Simulation time: 0 hr 32 min 56 sec) 
Heartbeat CPU 0 instructions: 68000000 cycles: 107152993 heartbeat IPC: 0.670185 cumulative IPC: 0.557776 (Simulation time: 0 hr 33 min 30 sec) 
Heartbeat CPU 0 instructions: 69000002 cycles: 108645140 heartbeat IPC: 0.670177 cumulative IPC: 0.559366 (Simulation time: 0 hr 34 min 7 sec) 
Heartbeat CPU 0 instructions: 70000001 cycles: 110137361 heartbeat IPC: 0.670141 cumulative IPC: 0.560911 (Simulation time: 0 hr 34 min 41 sec) 
Heartbeat CPU 0 instructions: 71000003 cycles: 111690929 heartbeat IPC: 0.643681 cumulative IPC: 0.562096 (Simulation time: 0 hr 35 min 12 sec) 
Heartbeat CPU 0 instructions: 72000000 cycles: 113857029 heartbeat IPC: 0.461658 cumulative IPC: 0.560131 (Simulation time: 0 hr 35 min 41 sec) 
Heartbeat CPU 0 instructions: 73000000 cycles: 116035947 heartbeat IPC: 0.458943 cumulative IPC: 0.558177 (Simulation time: 0 hr 36 min 7 sec) 
Heartbeat CPU 0 instructions: 74000000 cycles: 118194840 heartbeat IPC: 0.4632 cumulative IPC: 0.556395 (Simulation time: 0 hr 36 min 39 sec) 
Heartbeat CPU 0 instructions: 75000000 cycles: 120357739 heartbeat IPC: 0.462342 cumulative IPC: 0.554659 (Simulation time: 0 hr 37 min 6 sec) 
Heartbeat CPU 0 instructions: 76000000 cycles: 122530798 heartbeat IPC: 0.460181 cumulative IPC: 0.552939 (Simulation time: 0 hr 37 min 36 sec) 
Heartbeat CPU 0 instructions: 77000001 cycles: 124124197 heartbeat IPC: 0.62759 cumulative IPC: 0.553922 (Simulation time: 0 hr 38 min 15 sec) 
Heartbeat CPU 0 instructions: 78000000 cycles: 125629347 heartbeat IPC: 0.664385 cumulative IPC: 0.55528 (Simulation time: 0 hr 38 min 48 sec) 
Heartbeat CPU 0 instructions: 79000001 cycles: 127134570 heartbeat IPC: 0.664354 cumulative IPC: 0.556604 (Simulation time: 0 hr 39 min 27 sec) 
Heartbeat CPU 0 instructions: 80000000 cycles: 128639713 heartbeat IPC: 0.664388 cumulative IPC: 0.557897 (Simulation time: 0 hr 40 min 0 sec) 
Heartbeat CPU 0 instructions: 81000002 cycles: 130241723 heartbeat IPC: 0.624217 cumulative IPC: 0.558733 (Simulation time: 0 hr 40 min 31 sec) 
Heartbeat CPU 0 instructions: 82000003 cycles: 132389135 heartbeat IPC: 0.465677 cumulative IPC: 0.557187 (Simulation time: 0 hr 41 min 1 sec) 
Heartbeat CPU 0 instructions: 83000000 cycles: 134536291 heartbeat IPC: 0.465731 cumulative IPC: 0.555692 (Simulation time: 0 hr 41 min 28 sec) 
Heartbeat CPU 0 instructions: 84000000 cycles: 136694744 heartbeat IPC: 0.463295 cumulative IPC: 0.554198 (Simulation time: 0 hr 41 min 53 sec) 
Heartbeat CPU 0 instructions: 85000002 cycles: 138845451 heartbeat IPC: 0.464964 cumulative IPC: 0.552784 (Simulation time: 0 hr 42 min 23 sec) 
Heartbeat CPU 0 instructions: 86000002 cycles: 141013632 heartbeat IPC: 0.461216 cumulative IPC: 0.551344 (Simulation time: 0 hr 42 min 54 sec) 
Heartbeat CPU 0 instructions: 87000002 cycles: 142646031 heartbeat IPC: 0.612595 cumulative IPC: 0.55206 (Simulation time: 0 hr 43 min 30 sec) 
Heartbeat CPU 0 instructions: 88000000 cycles: 144222637 heartbeat IPC: 0.634273 cumulative IPC: 0.552979 (Simulation time: 0 hr 44 min 5 sec) 
Heartbeat CPU 0 instructions: 89000000 cycles: 145798165 heartbeat IPC: 0.634708 cumulative IPC: 0.553882 (Simulation time: 0 hr 44 min 41 sec) 
Heartbeat CPU 0 instructions: 90000000 cycles: 147710336 heartbeat IPC: 0.522966 cumulative IPC: 0.553473 (Simulation time: 0 hr 45 min 10 sec) 
Heartbeat CPU 0 instructions: 91000001 cycles: 150470089 heartbeat IPC: 0.362352 cumulative IPC: 0.549892 (Simulation time: 0 hr 45 min 39 sec) 
Heartbeat CPU 0 instructions: 92000000 cycles: 153198520 heartbeat IPC: 0.366511 cumulative IPC: 0.546557 (Simulation time: 0 hr 46 min 9 sec) 
Heartbeat CPU 0 instructions: 93000001 cycles: 155944315 heartbeat IPC: 0.364194 cumulative IPC: 0.54328 (Simulation time: 0 hr 46 min 44 sec) 
Heartbeat CPU 0 instructions: 94000001 cycles: 158487823 heartbeat IPC: 0.393158 cumulative IPC: 0.540822 (Simulation time: 0 hr 47 min 25 sec) 
Heartbeat CPU 0 instructions: 95000000 cycles: 160059757 heartbeat IPC: 0.636158 cumulative IPC: 0.541777 (Simulation time: 0 hr 47 min 58 sec) 
Heartbeat CPU 0 instructions: 96000000 cycles: 161631739 heartbeat IPC: 0.63614 cumulative IPC: 0.542713 (Simulation time: 0 hr 48 min 32 sec) 
Heartbeat CPU 0 instructions: 97000002 cycles: 163203787 heartbeat IPC: 0.636114 cumulative IPC: 0.54363 (Simulation time: 0 hr 49 min 2 sec) 
Heartbeat CPU 0 instructions: 98000001 cycles: 165338269 heartbeat IPC: 0.468497 cumulative IPC: 0.542641 (Simulation time: 0 hr 49 min 34 sec) 
Heartbeat CPU 0 instructions: 99000003 cycles: 168044450 heartbeat IPC: 0.369525 cumulative IPC: 0.5398 (Simulation time: 0 hr 50 min 3 sec) 
Heartbeat CPU 0 instructions: 100000000 cycles: 170751438 heartbeat IPC: 0.369413 cumulative IPC: 0.537048 (Simulation time: 0 hr 50 min 29 sec) 
Heartbeat CPU 0 instructions: 101000000 cycles: 173444783 heartbeat IPC: 0.371286 cumulative IPC: 0.534426 (Simulation time: 0 hr 50 min 58 sec) 
Heartbeat CPU 0 instructions: 102000000 cycles: 175690790 heartbeat IPC: 0.445235 cumulative IPC: 0.533265 (Simulation time: 0 hr 51 min 29 sec) 
Heartbeat CPU 0 instructions: 103000002 cycles: 177161655 heartbeat IPC: 0.679873 cumulative IPC: 0.534504 (Simulation time: 0 hr 51 min 59 sec) 
Heartbeat CPU 0 instructions: 104000000 cycles: 178632591 heartbeat IPC: 0.679838 cumulative IPC: 0.535722 (Simulation time: 0 hr 52 min 36 sec) 
Heartbeat CPU 0 instructions: 105000000 cycles: 180079224 heartbeat IPC: 0.69126 cumulative IPC: 0.536994 (Simulation time: 0 hr 53 min 4 sec) 
Heartbeat CPU 0 instructions: 106000003 cycles: 181497758 heartbeat IPC: 0.704955 cumulative IPC: 0.53833 (Simulation time: 0 hr 53 min 34 sec) 
Heartbeat CPU 0 instructions: 107000000 cycles: 183638894 heartbeat IPC: 0.46704 cumulative IPC: 0.537484 (Simulation time: 0 hr 53 min 59 sec) 
Heartbeat CPU 0 instructions: 108000000 cycles: 186137435 heartbeat IPC: 0.400234 cumulative IPC: 0.53561 (Simulation time: 0 hr 54 min 23 sec) 
Heartbeat CPU 0 instructions: 109000002 cycles: 188618513 heartbeat IPC: 0.403051 cumulative IPC: 0.533837 (Simulation time: 0 hr 54 min 46 sec) 
Heartbeat CPU 0 instructions: 110000002 cycles: 191103618 heartbeat IPC: 0.402397 cumulative IPC: 0.532099 (Simulation time: 0 hr 55 min 11 sec) 
Finished CPU 0 instructions: 100000000 cycles: 187935054 cummulative IPC: 0.532099 (Simulation time: 0 hr 55 min 11 sec) 

ChampSim completed all CPUs

Region of Interest Statistics

CPU 0 cummulative IPC: 0.532099 instructions: 100000000 cycles: 187935054
LLC TOTAL     ACCESS:    3801551  HIT:      21627  MISS:    3779924
LLC LOAD      ACCESS:     655954  HIT:       5812  MISS:     650142
LLC RFO       ACCESS:         20  HIT:         15  MISS:          5
LLC PREFETCH  ACCESS:    2133472  HIT:      11702  MISS:    2121770
LLC WRITEBACK ACCESS:    1012105  HIT:       4098  MISS:    1008007
