
*** ChampSim Multicore Out-of-Order Simulator ***

Warmup Instructions: 10000000
Simulation Instructions: 100000000
Configuration: 2
Number of CPUs: 1
LLC sets: 2048
LLC ways: 16
Off-chip DRAM Channels: 1 Width: 64-bit Data Rate: 1600 MT/s

CPU 0 runs /datasets/cs240c-wi22-a00-public/data/Assignment2-gz/bzip2_259B.trace.gz
CPU 0 L1D next line prefetcher
CPU 0 L2C IP-based stride prefetcher
Heartbeat CPU 0 instructions: 1000002 cycles: 428875 heartbeat IPC: 2.33169 cumulative IPC: 2.33169 (Simulation time: 0 hr 0 min 41 sec) 
Heartbeat CPU 0 instructions: 2000003 cycles: 861057 heartbeat IPC: 2.31384 cumulative IPC: 2.32273 (Simulation time: 0 hr 1 min 18 sec) 
Heartbeat CPU 0 instructions: 3000001 cycles: 1286790 heartbeat IPC: 2.34889 cumulative IPC: 2.33138 (Simulation time: 0 hr 1 min 54 sec) 
Heartbeat CPU 0 instructions: 4000000 cycles: 1685064 heartbeat IPC: 2.51083 cumulative IPC: 2.3738 (Simulation time: 0 hr 2 min 25 sec) 
Heartbeat CPU 0 instructions: 5000001 cycles: 2103497 heartbeat IPC: 2.38987 cumulative IPC: 2.37699 (Simulation time: 0 hr 3 min 4 sec) 
Heartbeat CPU 0 instructions: 6000001 cycles: 2532860 heartbeat IPC: 2.32903 cumulative IPC: 2.36886 (Simulation time: 0 hr 3 min 42 sec) 
Heartbeat CPU 0 instructions: 7000003 cycles: 2961908 heartbeat IPC: 2.33075 cumulative IPC: 2.36334 (Simulation time: 0 hr 4 min 23 sec) 
Heartbeat CPU 0 instructions: 8000000 cycles: 3391721 heartbeat IPC: 2.32659 cumulative IPC: 2.35868 (Simulation time: 0 hr 5 min 7 sec) 
Heartbeat CPU 0 instructions: 9000000 cycles: 3819847 heartbeat IPC: 2.33576 cumulative IPC: 2.35612 (Simulation time: 0 hr 5 min 50 sec) 
Heartbeat CPU 0 instructions: 10000002 cycles: 4193920 heartbeat IPC: 2.67328 cumulative IPC: 2.3844 (Simulation time: 0 hr 6 min 24 sec) 

Warmup complete CPU 0 instructions: 10000002 cycles: 4193920 (Simulation time: 0 hr 6 min 24 sec) 

Heartbeat CPU 0 instructions: 11000002 cycles: 5025719 heartbeat IPC: 1.20221 cumulative IPC: 1.20221 (Simulation time: 0 hr 6 min 57 sec) 
Heartbeat CPU 0 instructions: 12000000 cycles: 6121869 heartbeat IPC: 0.912282 cumulative IPC: 1.03737 (Simulation time: 0 hr 7 min 39 sec) 
Heartbeat CPU 0 instructions: 13000002 cycles: 7040784 heartbeat IPC: 1.08824 cumulative IPC: 1.05379 (Simulation time: 0 hr 8 min 24 sec) 
Heartbeat CPU 0 instructions: 14000003 cycles: 8011793 heartbeat IPC: 1.02986 cumulative IPC: 1.0477 (Simulation time: 0 hr 9 min 12 sec) 
Heartbeat CPU 0 instructions: 15000002 cycles: 9037790 heartbeat IPC: 0.974661 cumulative IPC: 1.03223 (Simulation time: 0 hr 9 min 58 sec) 
Heartbeat CPU 0 instructions: 16000000 cycles: 9994584 heartbeat IPC: 1.04515 cumulative IPC: 1.03436 (Simulation time: 0 hr 10 min 38 sec) 
Heartbeat CPU 0 instructions: 17000002 cycles: 11090817 heartbeat IPC: 0.912217 cumulative IPC: 1.01495 (Simulation time: 0 hr 11 min 23 sec) 
Heartbeat CPU 0 instructions: 18000001 cycles: 12194241 heartbeat IPC: 0.906269 cumulative IPC: 0.99996 (Simulation time: 0 hr 12 min 2 sec) 
Heartbeat CPU 0 instructions: 19000003 cycles: 13193195 heartbeat IPC: 1.00105 cumulative IPC: 1.00008 (Simulation time: 0 hr 12 min 40 sec) 
Heartbeat CPU 0 instructions: 20000000 cycles: 14216988 heartbeat IPC: 0.976757 cumulative IPC: 0.997698 (Simulation time: 0 hr 13 min 23 sec) 
Heartbeat CPU 0 instructions: 21000001 cycles: 15140379 heartbeat IPC: 1.08297 cumulative IPC: 1.00489 (Simulation time: 0 hr 14 min 4 sec) 
Heartbeat CPU 0 instructions: 22000001 cycles: 16058356 heartbeat IPC: 1.08935 cumulative IPC: 1.01143 (Simulation time: 0 hr 14 min 45 sec) 
Heartbeat CPU 0 instructions: 23000002 cycles: 16971786 heartbeat IPC: 1.09478 cumulative IPC: 1.01738 (Simulation time: 0 hr 15 min 20 sec) 
Heartbeat CPU 0 instructions: 24000000 cycles: 17882124 heartbeat IPC: 1.09849 cumulative IPC: 1.02278 (Simulation time: 0 hr 16 min 3 sec) 
Heartbeat CPU 0 instructions: 25000000 cycles: 18785717 heartbeat IPC: 1.10669 cumulative IPC: 1.02797 (Simulation time: 0 hr 16 min 41 sec) 
Heartbeat CPU 0 instructions: 26000000 cycles: 19748849 heartbeat IPC: 1.03828 cumulative IPC: 1.02861 (Simulation time: 0 hr 17 min 19 sec) 
Heartbeat CPU 0 instructions: 27000003 cycles: 20720600 heartbeat IPC: 1.02907 cumulative IPC: 1.02864 (Simulation time: 0 hr 17 min 59 sec) 
Heartbeat CPU 0 instructions: 28000000 cycles: 21648720 heartbeat IPC: 1.07744 cumulative IPC: 1.03123 (Simulation time: 0 hr 18 min 38 sec) 
Heartbeat CPU 0 instructions: 29000000 cycles: 22568310 heartbeat IPC: 1.08744 cumulative IPC: 1.03405 (Simulation time: 0 hr 19 min 13 sec) 
Heartbeat CPU 0 instructions: 30000001 cycles: 23549010 heartbeat IPC: 1.01968 cumulative IPC: 1.03332 (Simulation time: 0 hr 19 min 47 sec) 
Heartbeat CPU 0 instructions: 31000001 cycles: 24458170 heartbeat IPC: 1.09992 cumulative IPC: 1.03631 (Simulation time: 0 hr 20 min 17 sec) 
Heartbeat CPU 0 instructions: 32000000 cycles: 25353690 heartbeat IPC: 1.11667 cumulative IPC: 1.03971 (Simulation time: 0 hr 20 min 49 sec) 
Heartbeat CPU 0 instructions: 33000002 cycles: 26516442 heartbeat IPC: 0.86003 cumulative IPC: 1.03035 (Simulation time: 0 hr 21 min 30 sec) 
Heartbeat CPU 0 instructions: 34000003 cycles: 27870418 heartbeat IPC: 0.738566 cumulative IPC: 1.01366 (Simulation time: 0 hr 22 min 9 sec) 
Heartbeat CPU 0 instructions: 35000001 cycles: 28983404 heartbeat IPC: 0.898482 cumulative IPC: 1.00849 (Simulation time: 0 hr 22 min 49 sec) 
Heartbeat CPU 0 instructions: 36000000 cycles: 30163729 heartbeat IPC: 0.847223 cumulative IPC: 1.00116 (Simulation time: 0 hr 23 min 25 sec) 
Heartbeat CPU 0 instructions: 37000002 cycles: 31206743 heartbeat IPC: 0.958762 cumulative IPC: 0.999525 (Simulation time: 0 hr 23 min 59 sec) 
Heartbeat CPU 0 instructions: 38000003 cycles: 32321741 heartbeat IPC: 0.896864 cumulative IPC: 0.995456 (Simulation time: 0 hr 24 min 36 sec) 
Heartbeat CPU 0 instructions: 39000001 cycles: 33465716 heartbeat IPC: 0.874143 cumulative IPC: 0.990715 (Simulation time: 0 hr 25 min 12 sec) 
Heartbeat CPU 0 instructions: 40000000 cycles: 34534821 heartbeat IPC: 0.935361 cumulative IPC: 0.988764 (Simulation time: 0 hr 25 min 41 sec) 
Heartbeat CPU 0 instructions: 41000001 cycles: 35723935 heartbeat IPC: 0.840963 cumulative IPC: 0.98319 (Simulation time: 0 hr 26 min 18 sec) 
Heartbeat CPU 0 instructions: 42000000 cycles: 36932272 heartbeat IPC: 0.827583 cumulative IPC: 0.977447 (Simulation time: 0 hr 26 min 48 sec) 
Heartbeat CPU 0 instructions: 43000003 cycles: 38148785 heartbeat IPC: 0.822024 cumulative IPC: 0.971878 (Simulation time: 0 hr 27 min 17 sec) 
Heartbeat CPU 0 instructions: 44000000 cycles: 39362390 heartbeat IPC: 0.823989 cumulative IPC: 0.966775 (Simulation time: 0 hr 27 min 53 sec) 
Heartbeat CPU 0 instructions: 45000000 cycles: 40584131 heartbeat IPC: 0.818504 cumulative IPC: 0.961797 (Simulation time: 0 hr 28 min 28 sec) 
Heartbeat CPU 0 instructions: 46000002 cycles: 41823460 heartbeat IPC: 0.80689 cumulative IPC: 0.956695 (Simulation time: 0 hr 29 min 3 sec) 
Heartbeat CPU 0 instructions: 47000000 cycles: 43053994 heartbeat IPC: 0.812654 cumulative IPC: 0.952134 (Simulation time: 0 hr 29 min 37 sec) 
Heartbeat CPU 0 instructions: 48000000 cycles: 44291879 heartbeat IPC: 0.807829 cumulative IPC: 0.947679 (Simulation time: 0 hr 30 min 14 sec) 
Heartbeat CPU 0 instructions: 49000003 cycles: 45560200 heartbeat IPC: 0.788446 cumulative IPC: 0.942797 (Simulation time: 0 hr 30 min 47 sec) 
Heartbeat CPU 0 instructions: 50000001 cycles: 46599071 heartbeat IPC: 0.962582 cumulative IPC: 0.943282 (Simulation time: 0 hr 31 min 22 sec) 
Heartbeat CPU 0 instructions: 51000002 cycles: 47762978 heartbeat IPC: 0.859176 cumulative IPC: 0.941035 (Simulation time: 0 hr 31 min 55 sec) 
Heartbeat CPU 0 instructions: 52000000 cycles: 48881131 heartbeat IPC: 0.89433 cumulative IPC: 0.939866 (Simulation time: 0 hr 32 min 29 sec) 
Heartbeat CPU 0 instructions: 53000001 cycles: 50076381 heartbeat IPC: 0.836646 cumulative IPC: 0.937177 (Simulation time: 0 hr 33 min 4 sec) 
Heartbeat CPU 0 instructions: 54000000 cycles: 51300526 heartbeat IPC: 0.816896 cumulative IPC: 0.934052 (Simulation time: 0 hr 33 min 40 sec) 
Heartbeat CPU 0 instructions: 55000000 cycles: 52452135 heartbeat IPC: 0.86835 cumulative IPC: 0.932484 (Simulation time: 0 hr 34 min 19 sec) 
Heartbeat CPU 0 instructions: 56000000 cycles: 53676347 heartbeat IPC: 0.816852 cumulative IPC: 0.929623 (Simulation time: 0 hr 34 min 55 sec) 
Heartbeat CPU 0 instructions: 57000000 cycles: 54897401 heartbeat IPC: 0.818965 cumulative IPC: 0.926958 (Simulation time: 0 hr 35 min 29 sec) 
Heartbeat CPU 0 instructions: 58000002 cycles: 55928587 heartbeat IPC: 0.969759 cumulative IPC: 0.927811 (Simulation time: 0 hr 36 min 4 sec) 
Heartbeat CPU 0 instructions: 59000000 cycles: 57029803 heartbeat IPC: 0.908085 cumulative IPC: 0.9274 (Simulation time: 0 hr 36 min 38 sec) 
Heartbeat CPU 0 instructions: 60000000 cycles: 58208230 heartbeat IPC: 0.848589 cumulative IPC: 0.925681 (Simulation time: 0 hr 37 min 8 sec) 
Heartbeat CPU 0 instructions: 61000000 cycles: 59352372 heartbeat IPC: 0.874017 cumulative IPC: 0.924609 (Simulation time: 0 hr 37 min 39 sec) 
Heartbeat CPU 0 instructions: 62000002 cycles: 60196384 heartbeat IPC: 1.18482 cumulative IPC: 0.928531 (Simulation time: 0 hr 38 min 14 sec) 
Heartbeat CPU 0 instructions: 63000003 cycles: 61082760 heartbeat IPC: 1.12819 cumulative IPC: 0.931641 (Simulation time: 0 hr 38 min 50 sec) 
Heartbeat CPU 0 instructions: 64000000 cycles: 62145180 heartbeat IPC: 0.941245 cumulative IPC: 0.931817 (Simulation time: 0 hr 39 min 34 sec) 
Heartbeat CPU 0 instructions: 65000003 cycles: 63111696 heartbeat IPC: 1.03465 cumulative IPC: 0.933504 (Simulation time: 0 hr 40 min 15 sec) 
Heartbeat CPU 0 instructions: 66000003 cycles: 64067503 heartbeat IPC: 1.04624 cumulative IPC: 0.935304 (Simulation time: 0 hr 40 min 57 sec) 
Heartbeat CPU 0 instructions: 67000003 cycles: 65120421 heartbeat IPC: 0.949742 cumulative IPC: 0.935553 (Simulation time: 0 hr 41 min 34 sec) 
Heartbeat CPU 0 instructions: 68000000 cycles: 66195624 heartbeat IPC: 0.930054 cumulative IPC: 0.935458 (Simulation time: 0 hr 42 min 19 sec) 
Heartbeat CPU 0 instructions: 69000003 cycles: 67290204 heartbeat IPC: 0.913595 cumulative IPC: 0.935079 (Simulation time: 0 hr 43 min 1 sec) 
Heartbeat CPU 0 instructions: 70000003 cycles: 68550728 heartbeat IPC: 0.793321 cumulative IPC: 0.932302 (Simulation time: 0 hr 43 min 40 sec) 
Heartbeat CPU 0 instructions: 71000000 cycles: 69956035 heartbeat IPC: 0.711586 cumulative IPC: 0.927586 (Simulation time: 0 hr 44 min 27 sec) 
Heartbeat CPU 0 instructions: 72000000 cycles: 71153833 heartbeat IPC: 0.834865 cumulative IPC: 0.925927 (Simulation time: 0 hr 45 min 8 sec) 
Heartbeat CPU 0 instructions: 73000003 cycles: 72463719 heartbeat IPC: 0.763427 cumulative IPC: 0.922809 (Simulation time: 0 hr 45 min 45 sec) 
Heartbeat CPU 0 instructions: 74000001 cycles: 73721034 heartbeat IPC: 0.795344 cumulative IPC: 0.920504 (Simulation time: 0 hr 46 min 30 sec) 
Heartbeat CPU 0 instructions: 75000000 cycles: 74877299 heartbeat IPC: 0.864853 cumulative IPC: 0.919594 (Simulation time: 0 hr 47 min 7 sec) 
Heartbeat CPU 0 instructions: 76000000 cycles: 75969429 heartbeat IPC: 0.915642 cumulative IPC: 0.919534 (Simulation time: 0 hr 47 min 44 sec) 
Heartbeat CPU 0 instructions: 77000003 cycles: 76938404 heartbeat IPC: 1.03202 cumulative IPC: 0.921032 (Simulation time: 0 hr 48 min 20 sec) 
Heartbeat CPU 0 instructions: 78000000 cycles: 77898174 heartbeat IPC: 1.04191 cumulative IPC: 0.922606 (Simulation time: 0 hr 48 min 52 sec) 
Heartbeat CPU 0 instructions: 79000003 cycles: 78956171 heartbeat IPC: 0.945185 cumulative IPC: 0.922926 (Simulation time: 0 hr 49 min 29 sec) 
Heartbeat CPU 0 instructions: 80000000 cycles: 80180034 heartbeat IPC: 0.817082 cumulative IPC: 0.921221 (Simulation time: 0 hr 50 min 6 sec) 
Heartbeat CPU 0 instructions: 81000001 cycles: 81360172 heartbeat IPC: 0.847359 cumulative IPC: 0.920091 (Simulation time: 0 hr 50 min 42 sec) 
Heartbeat CPU 0 instructions: 82000000 cycles: 82488942 heartbeat IPC: 0.885919 cumulative IPC: 0.919599 (Simulation time: 0 hr 51 min 21 sec) 
Heartbeat CPU 0 instructions: 83000002 cycles: 83553812 heartbeat IPC: 0.939084 cumulative IPC: 0.91986 (Simulation time: 0 hr 51 min 59 sec) 
Heartbeat CPU 0 instructions: 84000000 cycles: 84500264 heartbeat IPC: 1.05658 cumulative IPC: 0.921471 (Simulation time: 0 hr 52 min 36 sec) 
Heartbeat CPU 0 instructions: 85000003 cycles: 85446574 heartbeat IPC: 1.05674 cumulative IPC: 0.923047 (Simulation time: 0 hr 53 min 12 sec) 
Heartbeat CPU 0 instructions: 86000003 cycles: 86489580 heartbeat IPC: 0.958767 cumulative IPC: 0.9235 (Simulation time: 0 hr 53 min 47 sec) 
Heartbeat CPU 0 instructions: 87000002 cycles: 87567107 heartbeat IPC: 0.92805 cumulative IPC: 0.923558 (Simulation time: 0 hr 54 min 21 sec) 
Heartbeat CPU 0 instructions: 88000000 cycles: 88671865 heartbeat IPC: 0.905174 cumulative IPC: 0.923318 (Simulation time: 0 hr 54 min 49 sec) 
Heartbeat CPU 0 instructions: 89000002 cycles: 89678237 heartbeat IPC: 0.99367 cumulative IPC: 0.924146 (Simulation time: 0 hr 55 min 18 sec) 
Heartbeat CPU 0 instructions: 90000001 cycles: 90802132 heartbeat IPC: 0.889762 cumulative IPC: 0.9237 (Simulation time: 0 hr 55 min 44 sec) 
Heartbeat CPU 0 instructions: 91000002 cycles: 91914858 heartbeat IPC: 0.898695 cumulative IPC: 0.923383 (Simulation time: 0 hr 56 min 10 sec) 
Heartbeat CPU 0 instructions: 92000000 cycles: 92953487 heartbeat IPC: 0.962806 cumulative IPC: 0.923844 (Simulation time: 0 hr 56 min 41 sec) 
Heartbeat CPU 0 instructions: 93000000 cycles: 94141393 heartbeat IPC: 0.841817 cumulative IPC: 0.922761 (Simulation time: 0 hr 57 min 5 sec) 
Heartbeat CPU 0 instructions: 94000003 cycles: 95317591 heartbeat IPC: 0.8502 cumulative IPC: 0.921824 (Simulation time: 0 hr 57 min 33 sec) 
Heartbeat CPU 0 instructions: 95000002 cycles: 96502004 heartbeat IPC: 0.844299 cumulative IPC: 0.920829 (Simulation time: 0 hr 58 min 0 sec) 
Heartbeat CPU 0 instructions: 96000000 cycles: 97671137 heartbeat IPC: 0.855333 cumulative IPC: 0.92001 (Simulation time: 0 hr 58 min 26 sec) 
Heartbeat CPU 0 instructions: 97000002 cycles: 98888061 heartbeat IPC: 0.821746 cumulative IPC: 0.918747 (Simulation time: 0 hr 58 min 53 sec) 
Heartbeat CPU 0 instructions: 98000000 cycles: 100120294 heartbeat IPC: 0.811533 cumulative IPC: 0.91737 (Simulation time: 0 hr 59 min 17 sec) 
Heartbeat CPU 0 instructions: 99000000 cycles: 101360252 heartbeat IPC: 0.806479 cumulative IPC: 0.915955 (Simulation time: 0 hr 59 min 41 sec) 
Heartbeat CPU 0 instructions: 100000000 cycles: 102602312 heartbeat IPC: 0.805114 cumulative IPC: 0.914556 (Simulation time: 1 hr 0 min 3 sec) 
Heartbeat CPU 0 instructions: 101000003 cycles: 103750343 heartbeat IPC: 0.871059 cumulative IPC: 0.914055 (Simulation time: 1 hr 0 min 27 sec) 
Heartbeat CPU 0 instructions: 102000000 cycles: 104868923 heartbeat IPC: 0.893988 cumulative IPC: 0.913832 (Simulation time: 1 hr 0 min 50 sec) 
Heartbeat CPU 0 instructions: 103000000 cycles: 105970280 heartbeat IPC: 0.907971 cumulative IPC: 0.913768 (Simulation time: 1 hr 1 min 15 sec) 
Heartbeat CPU 0 instructions: 104000000 cycles: 107123033 heartbeat IPC: 0.867489 cumulative IPC: 0.91325 (Simulation time: 1 hr 1 min 39 sec) 
Heartbeat CPU 0 instructions: 105000002 cycles: 108334854 heartbeat IPC: 0.825206 cumulative IPC: 0.912225 (Simulation time: 1 hr 2 min 3 sec) 
Heartbeat CPU 0 instructions: 106000001 cycles: 109468413 heartbeat IPC: 0.882176 cumulative IPC: 0.911902 (Simulation time: 1 hr 2 min 25 sec) 
Heartbeat CPU 0 instructions: 107000000 cycles: 110672033 heartbeat IPC: 0.830826 cumulative IPC: 0.910985 (Simulation time: 1 hr 2 min 47 sec) 
Heartbeat CPU 0 instructions: 108000000 cycles: 111870581 heartbeat IPC: 0.834343 cumulative IPC: 0.910132 (Simulation time: 1 hr 3 min 6 sec) 
Heartbeat CPU 0 instructions: 109000000 cycles: 112882931 heartbeat IPC: 0.987801 cumulative IPC: 0.910856 (Simulation time: 1 hr 3 min 27 sec) 
Heartbeat CPU 0 instructions: 110000000 cycles: 114043705 heartbeat IPC: 0.861494 cumulative IPC: 0.910334 (Simulation time: 1 hr 3 min 48 sec) 
Finished CPU 0 instructions: 100000002 cycles: 109849787 cummulative IPC: 0.910334 (Simulation time: 1 hr 3 min 48 sec) 

ChampSim completed all CPUs

Region of Interest Statistics

CPU 0 cummulative IPC: 0.910334 instructions: 100000002 cycles: 109849787
LLC TOTAL     ACCESS:    1373513  HIT:     986969  MISS:     386544
LLC LOAD      ACCESS:     396202  HIT:     341779  MISS:      54423
LLC RFO       ACCESS:     104382  HIT:      47800  MISS:      56582
LLC PREFETCH  ACCESS:     675948  HIT:     479826  MISS:     196122
LLC WRITEBACK ACCESS:     196981  HIT:     117564  MISS:      79417
