
*** ChampSim Multicore Out-of-Order Simulator ***

Warmup Instructions: 10000000
Simulation Instructions: 100000000
Configuration: 2
Number of CPUs: 1
LLC sets: 2048
LLC ways: 16
Off-chip DRAM Channels: 1 Width: 64-bit Data Rate: 1600 MT/s

CPU 0 runs /datasets/cs240c-wi22-a00-public/data/Assignment2-gz/soplex_205B.trace.gz
CPU 0 L1D next line prefetcher
CPU 0 L2C IP-based stride prefetcher
Heartbeat CPU 0 instructions: 1000000 cycles: 395620 heartbeat IPC: 2.52768 cumulative IPC: 2.52768 (Simulation time: 0 hr 0 min 33 sec) 
Heartbeat CPU 0 instructions: 2000002 cycles: 927584 heartbeat IPC: 1.87983 cumulative IPC: 2.15614 (Simulation time: 0 hr 1 min 13 sec) 
Heartbeat CPU 0 instructions: 3000000 cycles: 1399652 heartbeat IPC: 2.11833 cumulative IPC: 2.14339 (Simulation time: 0 hr 2 min 9 sec) 
Heartbeat CPU 0 instructions: 4000000 cycles: 1760917 heartbeat IPC: 2.76805 cumulative IPC: 2.27154 (Simulation time: 0 hr 2 min 53 sec) 
Heartbeat CPU 0 instructions: 5000003 cycles: 2204357 heartbeat IPC: 2.2551 cumulative IPC: 2.26824 (Simulation time: 0 hr 3 min 39 sec) 
Heartbeat CPU 0 instructions: 6000003 cycles: 2624339 heartbeat IPC: 2.38105 cumulative IPC: 2.28629 (Simulation time: 0 hr 4 min 28 sec) 
Heartbeat CPU 0 instructions: 7000000 cycles: 3008774 heartbeat IPC: 2.60121 cumulative IPC: 2.32653 (Simulation time: 0 hr 5 min 9 sec) 
Heartbeat CPU 0 instructions: 8000000 cycles: 3402768 heartbeat IPC: 2.53811 cumulative IPC: 2.35103 (Simulation time: 0 hr 5 min 52 sec) 
Heartbeat CPU 0 instructions: 9000003 cycles: 3927898 heartbeat IPC: 1.9043 cumulative IPC: 2.2913 (Simulation time: 0 hr 6 min 43 sec) 
Heartbeat CPU 0 instructions: 10000000 cycles: 4413316 heartbeat IPC: 2.06007 cumulative IPC: 2.26587 (Simulation time: 0 hr 7 min 41 sec) 

Warmup complete CPU 0 instructions: 10000004 cycles: 4413318 (Simulation time: 0 hr 7 min 41 sec) 

Heartbeat CPU 0 instructions: 11000001 cycles: 7042150 heartbeat IPC: 0.380397 cumulative IPC: 0.380396 (Simulation time: 0 hr 8 min 44 sec) 
Heartbeat CPU 0 instructions: 12000000 cycles: 9309226 heartbeat IPC: 0.441096 cumulative IPC: 0.408504 (Simulation time: 0 hr 9 min 52 sec) 
Heartbeat CPU 0 instructions: 13000000 cycles: 12910083 heartbeat IPC: 0.277712 cumulative IPC: 0.353075 (Simulation time: 0 hr 11 min 6 sec) 
Heartbeat CPU 0 instructions: 14000003 cycles: 14224651 heartbeat IPC: 0.760708 cumulative IPC: 0.407692 (Simulation time: 0 hr 11 min 42 sec) 
Heartbeat CPU 0 instructions: 15000000 cycles: 15972944 heartbeat IPC: 0.571985 cumulative IPC: 0.43254 (Simulation time: 0 hr 12 min 21 sec) 
Heartbeat CPU 0 instructions: 16000000 cycles: 19412578 heartbeat IPC: 0.290729 cumulative IPC: 0.400019 (Simulation time: 0 hr 13 min 19 sec) 
Heartbeat CPU 0 instructions: 17000001 cycles: 23159396 heartbeat IPC: 0.266893 cumulative IPC: 0.373411 (Simulation time: 0 hr 14 min 30 sec) 
Heartbeat CPU 0 instructions: 18000000 cycles: 29757014 heartbeat IPC: 0.15157 cumulative IPC: 0.31566 (Simulation time: 0 hr 15 min 38 sec) 
Heartbeat CPU 0 instructions: 19000003 cycles: 34292365 heartbeat IPC: 0.220491 cumulative IPC: 0.301214 (Simulation time: 0 hr 16 min 47 sec) 
Heartbeat CPU 0 instructions: 20000000 cycles: 36521858 heartbeat IPC: 0.448531 cumulative IPC: 0.311444 (Simulation time: 0 hr 17 min 53 sec) 
Heartbeat CPU 0 instructions: 21000001 cycles: 41162200 heartbeat IPC: 0.215502 cumulative IPC: 0.299329 (Simulation time: 0 hr 19 min 0 sec) 
Heartbeat CPU 0 instructions: 22000001 cycles: 45334687 heartbeat IPC: 0.239665 cumulative IPC: 0.293245 (Simulation time: 0 hr 20 min 0 sec) 
Heartbeat CPU 0 instructions: 23000002 cycles: 48562564 heartbeat IPC: 0.309801 cumulative IPC: 0.294456 (Simulation time: 0 hr 20 min 56 sec) 
Heartbeat CPU 0 instructions: 24000000 cycles: 52396840 heartbeat IPC: 0.260805 cumulative IPC: 0.291767 (Simulation time: 0 hr 21 min 51 sec) 
Heartbeat CPU 0 instructions: 25000000 cycles: 56317020 heartbeat IPC: 0.25509 cumulative IPC: 0.288997 (Simulation time: 0 hr 22 min 41 sec) 
Heartbeat CPU 0 instructions: 26000002 cycles: 60095599 heartbeat IPC: 0.26465 cumulative IPC: 0.287345 (Simulation time: 0 hr 23 min 37 sec) 
Heartbeat CPU 0 instructions: 27000000 cycles: 62693075 heartbeat IPC: 0.384988 cumulative IPC: 0.291696 (Simulation time: 0 hr 24 min 21 sec) 
Heartbeat CPU 0 instructions: 28000000 cycles: 66367111 heartbeat IPC: 0.27218 cumulative IPC: 0.290539 (Simulation time: 0 hr 25 min 17 sec) 
Heartbeat CPU 0 instructions: 29000000 cycles: 68399348 heartbeat IPC: 0.492069 cumulative IPC: 0.29694 (Simulation time: 0 hr 26 min 6 sec) 
Heartbeat CPU 0 instructions: 30000003 cycles: 69312338 heartbeat IPC: 1.09531 cumulative IPC: 0.308171 (Simulation time: 0 hr 26 min 44 sec) 
Heartbeat CPU 0 instructions: 31000003 cycles: 70653911 heartbeat IPC: 0.745394 cumulative IPC: 0.317026 (Simulation time: 0 hr 27 min 26 sec) 
Heartbeat CPU 0 instructions: 32000000 cycles: 73787402 heartbeat IPC: 0.319132 cumulative IPC: 0.317121 (Simulation time: 0 hr 28 min 20 sec) 
Heartbeat CPU 0 instructions: 33000000 cycles: 76802116 heartbeat IPC: 0.331706 cumulative IPC: 0.317729 (Simulation time: 0 hr 29 min 18 sec) 
Heartbeat CPU 0 instructions: 34000002 cycles: 78532463 heartbeat IPC: 0.57792 cumulative IPC: 0.323803 (Simulation time: 0 hr 30 min 2 sec) 
Heartbeat CPU 0 instructions: 35000003 cycles: 81234450 heartbeat IPC: 0.370098 cumulative IPC: 0.325431 (Simulation time: 0 hr 30 min 50 sec) 
Heartbeat CPU 0 instructions: 36000000 cycles: 83845098 heartbeat IPC: 0.383046 cumulative IPC: 0.327325 (Simulation time: 0 hr 31 min 45 sec) 
Heartbeat CPU 0 instructions: 37000000 cycles: 87494496 heartbeat IPC: 0.274018 cumulative IPC: 0.324983 (Simulation time: 0 hr 32 min 47 sec) 
Heartbeat CPU 0 instructions: 38000002 cycles: 88794401 heartbeat IPC: 0.769289 cumulative IPC: 0.331828 (Simulation time: 0 hr 33 min 21 sec) 
Heartbeat CPU 0 instructions: 39000003 cycles: 90798401 heartbeat IPC: 0.499002 cumulative IPC: 0.335706 (Simulation time: 0 hr 34 min 5 sec) 
Heartbeat CPU 0 instructions: 40000000 cycles: 94271536 heartbeat IPC: 0.287923 cumulative IPC: 0.333859 (Simulation time: 0 hr 35 min 14 sec) 
Heartbeat CPU 0 instructions: 41000000 cycles: 97692688 heartbeat IPC: 0.292299 cumulative IPC: 0.332335 (Simulation time: 0 hr 36 min 21 sec) 
Heartbeat CPU 0 instructions: 42000001 cycles: 99549237 heartbeat IPC: 0.538634 cumulative IPC: 0.336361 (Simulation time: 0 hr 37 min 14 sec) 
Heartbeat CPU 0 instructions: 43000001 cycles: 103431819 heartbeat IPC: 0.257561 cumulative IPC: 0.333271 (Simulation time: 0 hr 38 min 28 sec) 
Heartbeat CPU 0 instructions: 44000000 cycles: 105829250 heartbeat IPC: 0.417113 cumulative IPC: 0.335253 (Simulation time: 0 hr 39 min 10 sec) 
Heartbeat CPU 0 instructions: 45000001 cycles: 107122915 heartbeat IPC: 0.772998 cumulative IPC: 0.340767 (Simulation time: 0 hr 39 min 45 sec) 
Heartbeat CPU 0 instructions: 46000002 cycles: 109959342 heartbeat IPC: 0.352557 cumulative IPC: 0.341083 (Simulation time: 0 hr 40 min 36 sec) 
Heartbeat CPU 0 instructions: 47000000 cycles: 113180154 heartbeat IPC: 0.31048 cumulative IPC: 0.340177 (Simulation time: 0 hr 41 min 35 sec) 
Heartbeat CPU 0 instructions: 48000000 cycles: 115949963 heartbeat IPC: 0.361036 cumulative IPC: 0.340695 (Simulation time: 0 hr 42 min 33 sec) 
Heartbeat CPU 0 instructions: 49000001 cycles: 117969275 heartbeat IPC: 0.495219 cumulative IPC: 0.343443 (Simulation time: 0 hr 43 min 22 sec) 
Heartbeat CPU 0 instructions: 50000000 cycles: 121362662 heartbeat IPC: 0.294691 cumulative IPC: 0.342028 (Simulation time: 0 hr 44 min 23 sec) 
Heartbeat CPU 0 instructions: 51000003 cycles: 123813258 heartbeat IPC: 0.408065 cumulative IPC: 0.343384 (Simulation time: 0 hr 45 min 8 sec) 
Heartbeat CPU 0 instructions: 52000000 cycles: 125104936 heartbeat IPC: 0.774184 cumulative IPC: 0.347994 (Simulation time: 0 hr 45 min 44 sec) 
Heartbeat CPU 0 instructions: 53000003 cycles: 127921753 heartbeat IPC: 0.355012 cumulative IPC: 0.348154 (Simulation time: 0 hr 46 min 34 sec) 
Heartbeat CPU 0 instructions: 54000000 cycles: 131163325 heartbeat IPC: 0.308491 cumulative IPC: 0.34714 (Simulation time: 0 hr 47 min 35 sec) 
Heartbeat CPU 0 instructions: 55000001 cycles: 134184847 heartbeat IPC: 0.330959 cumulative IPC: 0.346763 (Simulation time: 0 hr 48 min 35 sec) 
Heartbeat CPU 0 instructions: 56000000 cycles: 136069808 heartbeat IPC: 0.530514 cumulative IPC: 0.349394 (Simulation time: 0 hr 49 min 22 sec) 
Heartbeat CPU 0 instructions: 57000000 cycles: 139541800 heartbeat IPC: 0.288019 cumulative IPC: 0.347817 (Simulation time: 0 hr 50 min 21 sec) 
Heartbeat CPU 0 instructions: 58000000 cycles: 141827197 heartbeat IPC: 0.437561 cumulative IPC: 0.34931 (Simulation time: 0 hr 51 min 0 sec) 
Heartbeat CPU 0 instructions: 59000001 cycles: 143109623 heartbeat IPC: 0.779773 cumulative IPC: 0.35329 (Simulation time: 0 hr 51 min 31 sec) 
Heartbeat CPU 0 instructions: 60000000 cycles: 145928243 heartbeat IPC: 0.354783 cumulative IPC: 0.35332 (Simulation time: 0 hr 52 min 16 sec) 
Heartbeat CPU 0 instructions: 61000003 cycles: 149161740 heartbeat IPC: 0.309264 cumulative IPC: 0.352335 (Simulation time: 0 hr 53 min 13 sec) 
Heartbeat CPU 0 instructions: 62000002 cycles: 152335092 heartbeat IPC: 0.315124 cumulative IPC: 0.351537 (Simulation time: 0 hr 54 min 8 sec) 
Heartbeat CPU 0 instructions: 63000001 cycles: 154038110 heartbeat IPC: 0.587192 cumulative IPC: 0.354219 (Simulation time: 0 hr 54 min 50 sec) 
Heartbeat CPU 0 instructions: 64000000 cycles: 157878731 heartbeat IPC: 0.260374 cumulative IPC: 0.351871 (Simulation time: 0 hr 55 min 54 sec) 
Heartbeat CPU 0 instructions: 65000001 cycles: 159803449 heartbeat IPC: 0.519557 cumulative IPC: 0.353948 (Simulation time: 0 hr 56 min 31 sec) 
Heartbeat CPU 0 instructions: 66000000 cycles: 161086326 heartbeat IPC: 0.779497 cumulative IPC: 0.357432 (Simulation time: 0 hr 57 min 4 sec) 
Heartbeat CPU 0 instructions: 67000003 cycles: 163929000 heartbeat IPC: 0.351783 cumulative IPC: 0.357332 (Simulation time: 0 hr 57 min 52 sec) 
Heartbeat CPU 0 instructions: 68000000 cycles: 167235301 heartbeat IPC: 0.302452 cumulative IPC: 0.356217 (Simulation time: 0 hr 58 min 50 sec) 
Heartbeat CPU 0 instructions: 69000001 cycles: 169950009 heartbeat IPC: 0.368364 cumulative IPC: 0.356416 (Simulation time: 0 hr 59 min 42 sec) 
Heartbeat CPU 0 instructions: 70000000 cycles: 171853230 heartbeat IPC: 0.525425 cumulative IPC: 0.358337 (Simulation time: 1 hr 0 min 26 sec) 
Heartbeat CPU 0 instructions: 71000001 cycles: 175346034 heartbeat IPC: 0.286303 cumulative IPC: 0.356866 (Simulation time: 1 hr 1 min 24 sec) 
Heartbeat CPU 0 instructions: 72000000 cycles: 177615124 heartbeat IPC: 0.440705 cumulative IPC: 0.357964 (Simulation time: 1 hr 2 min 5 sec) 
Heartbeat CPU 0 instructions: 73000000 cycles: 178901807 heartbeat IPC: 0.777192 cumulative IPC: 0.361055 (Simulation time: 1 hr 2 min 38 sec) 
Heartbeat CPU 0 instructions: 74000001 cycles: 181711028 heartbeat IPC: 0.355971 cumulative IPC: 0.360975 (Simulation time: 1 hr 3 min 29 sec) 
Heartbeat CPU 0 instructions: 75000003 cycles: 184961352 heartbeat IPC: 0.307662 cumulative IPC: 0.360015 (Simulation time: 1 hr 4 min 27 sec) 
Heartbeat CPU 0 instructions: 76000000 cycles: 188163858 heartbeat IPC: 0.312255 cumulative IPC: 0.359183 (Simulation time: 1 hr 5 min 21 sec) 
Heartbeat CPU 0 instructions: 77000000 cycles: 189814052 heartbeat IPC: 0.605989 cumulative IPC: 0.361379 (Simulation time: 1 hr 6 min 5 sec) 
Heartbeat CPU 0 instructions: 78000000 cycles: 193771683 heartbeat IPC: 0.252676 cumulative IPC: 0.359107 (Simulation time: 1 hr 7 min 4 sec) 
Heartbeat CPU 0 instructions: 79000002 cycles: 195595278 heartbeat IPC: 0.548368 cumulative IPC: 0.360913 (Simulation time: 1 hr 7 min 36 sec) 
Heartbeat CPU 0 instructions: 80000000 cycles: 196873817 heartbeat IPC: 0.782141 cumulative IPC: 0.363711 (Simulation time: 1 hr 8 min 5 sec) 
Heartbeat CPU 0 instructions: 81000000 cycles: 199740430 heartbeat IPC: 0.348844 cumulative IPC: 0.363493 (Simulation time: 1 hr 8 min 48 sec) 
Heartbeat CPU 0 instructions: 82000000 cycles: 203124223 heartbeat IPC: 0.295526 cumulative IPC: 0.362335 (Simulation time: 1 hr 9 min 44 sec) 
Heartbeat CPU 0 instructions: 83000000 cycles: 206286254 heartbeat IPC: 0.316252 cumulative IPC: 0.361614 (Simulation time: 1 hr 10 min 33 sec) 
Heartbeat CPU 0 instructions: 84000000 cycles: 208075236 heartbeat IPC: 0.558977 cumulative IPC: 0.363347 (Simulation time: 1 hr 11 min 12 sec) 
Heartbeat CPU 0 instructions: 85000000 cycles: 212107773 heartbeat IPC: 0.247983 cumulative IPC: 0.361107 (Simulation time: 1 hr 12 min 7 sec) 
Heartbeat CPU 0 instructions: 86000002 cycles: 213554745 heartbeat IPC: 0.6911 cumulative IPC: 0.36339 (Simulation time: 1 hr 12 min 32 sec) 
Heartbeat CPU 0 instructions: 87000002 cycles: 214824105 heartbeat IPC: 0.787799 cumulative IPC: 0.365951 (Simulation time: 1 hr 12 min 57 sec) 
Heartbeat CPU 0 instructions: 88000000 cycles: 217649704 heartbeat IPC: 0.353907 cumulative IPC: 0.365791 (Simulation time: 1 hr 13 min 37 sec) 
Heartbeat CPU 0 instructions: 89000001 cycles: 221261223 heartbeat IPC: 0.276892 cumulative IPC: 0.364311 (Simulation time: 1 hr 14 min 25 sec) 
Heartbeat CPU 0 instructions: 90000001 cycles: 224290569 heartbeat IPC: 0.330104 cumulative IPC: 0.363839 (Simulation time: 1 hr 15 min 5 sec) 
Heartbeat CPU 0 instructions: 91000002 cycles: 226182707 heartbeat IPC: 0.528503 cumulative IPC: 0.365244 (Simulation time: 1 hr 15 min 43 sec) 
Heartbeat CPU 0 instructions: 92000000 cycles: 229944861 heartbeat IPC: 0.265805 cumulative IPC: 0.363586 (Simulation time: 1 hr 16 min 29 sec) 
Heartbeat CPU 0 instructions: 93000000 cycles: 231247743 heartbeat IPC: 0.767529 cumulative IPC: 0.365906 (Simulation time: 1 hr 16 min 53 sec) 
Heartbeat CPU 0 instructions: 94000000 cycles: 232632746 heartbeat IPC: 0.72202 cumulative IPC: 0.368067 (Simulation time: 1 hr 17 min 17 sec) 
Heartbeat CPU 0 instructions: 95000002 cycles: 235541511 heartbeat IPC: 0.343789 cumulative IPC: 0.367761 (Simulation time: 1 hr 17 min 53 sec) 
Heartbeat CPU 0 instructions: 96000000 cycles: 238591313 heartbeat IPC: 0.327889 cumulative IPC: 0.367242 (Simulation time: 1 hr 18 min 28 sec) 
Heartbeat CPU 0 instructions: 97000003 cycles: 241231662 heartbeat IPC: 0.378739 cumulative IPC: 0.36737 (Simulation time: 1 hr 18 min 56 sec) 
Heartbeat CPU 0 instructions: 98000003 cycles: 243548168 heartbeat IPC: 0.431685 cumulative IPC: 0.367993 (Simulation time: 1 hr 19 min 25 sec) 
Heartbeat CPU 0 instructions: 99000000 cycles: 247033484 heartbeat IPC: 0.286917 cumulative IPC: 0.366829 (Simulation time: 1 hr 19 min 54 sec) 
Heartbeat CPU 0 instructions: 100000000 cycles: 248343578 heartbeat IPC: 0.763304 cumulative IPC: 0.368958 (Simulation time: 1 hr 20 min 11 sec) 
Heartbeat CPU 0 instructions: 101000003 cycles: 250277648 heartbeat IPC: 0.517046 cumulative IPC: 0.370123 (Simulation time: 1 hr 20 min 31 sec) 
Heartbeat CPU 0 instructions: 102000002 cycles: 253375715 heartbeat IPC: 0.322782 cumulative IPC: 0.369534 (Simulation time: 1 hr 20 min 53 sec) 
Heartbeat CPU 0 instructions: 103000000 cycles: 255717778 heartbeat IPC: 0.426973 cumulative IPC: 0.370069 (Simulation time: 1 hr 21 min 16 sec) 
Heartbeat CPU 0 instructions: 104000000 cycles: 264607236 heartbeat IPC: 0.112493 cumulative IPC: 0.361269 (Simulation time: 1 hr 21 min 42 sec) 
Heartbeat CPU 0 instructions: 105000000 cycles: 266723206 heartbeat IPC: 0.472596 cumulative IPC: 0.362167 (Simulation time: 1 hr 22 min 3 sec) 
Heartbeat CPU 0 instructions: 106000002 cycles: 270749747 heartbeat IPC: 0.248353 cumulative IPC: 0.360446 (Simulation time: 1 hr 22 min 25 sec) 
Heartbeat CPU 0 instructions: 107000003 cycles: 275207427 heartbeat IPC: 0.224332 cumulative IPC: 0.358206 (Simulation time: 1 hr 22 min 45 sec) 
Heartbeat CPU 0 instructions: 108000000 cycles: 278676016 heartbeat IPC: 0.288301 cumulative IPC: 0.357322 (Simulation time: 1 hr 23 min 2 sec) 
Heartbeat CPU 0 instructions: 109000000 cycles: 282021796 heartbeat IPC: 0.298884 cumulative IPC: 0.356617 (Simulation time: 1 hr 23 min 18 sec) 
Heartbeat CPU 0 instructions: 110000003 cycles: 285743529 heartbeat IPC: 0.268693 cumulative IPC: 0.355454 (Simulation time: 1 hr 23 min 30 sec) 
Finished CPU 0 instructions: 100000003 cycles: 281330212 cummulative IPC: 0.355454 (Simulation time: 1 hr 23 min 30 sec) 

ChampSim completed all CPUs

Region of Interest Statistics

CPU 0 cummulative IPC: 0.355454 instructions: 100000003 cycles: 281330212
LLC TOTAL     ACCESS:    8734839  HIT:    4042573  MISS:    4692266
LLC LOAD      ACCESS:    2234256  HIT:     941797  MISS:    1292459
LLC RFO       ACCESS:     871507  HIT:     364725  MISS:     506782
LLC PREFETCH  ACCESS:    3454174  HIT:    1228094  MISS:    2226080
LLC WRITEBACK ACCESS:    2174902  HIT:    1507957  MISS:     666945
