
*** ChampSim Multicore Out-of-Order Simulator ***

Warmup Instructions: 10000000
Simulation Instructions: 100000000
Configuration: 2
Number of CPUs: 1
LLC sets: 2048
LLC ways: 16
Off-chip DRAM Channels: 1 Width: 64-bit Data Rate: 1600 MT/s

CPU 0 runs /datasets/cs240c-wi22-a00-public/data/Assignment2-gz/soplex_66B.trace.gz
CPU 0 L1D next line prefetcher
CPU 0 L2C IP-based stride prefetcher
Heartbeat CPU 0 instructions: 1000003 cycles: 415045 heartbeat IPC: 2.40938 cumulative IPC: 2.40938 (Simulation time: 0 hr 0 min 41 sec) 
Heartbeat CPU 0 instructions: 2000003 cycles: 837178 heartbeat IPC: 2.36892 cumulative IPC: 2.38898 (Simulation time: 0 hr 1 min 25 sec) 
Heartbeat CPU 0 instructions: 3000003 cycles: 1242143 heartbeat IPC: 2.46935 cumulative IPC: 2.41518 (Simulation time: 0 hr 2 min 10 sec) 
Heartbeat CPU 0 instructions: 4000000 cycles: 1626256 heartbeat IPC: 2.60339 cumulative IPC: 2.45964 (Simulation time: 0 hr 2 min 50 sec) 
Heartbeat CPU 0 instructions: 5000000 cycles: 2040643 heartbeat IPC: 2.4132 cumulative IPC: 2.45021 (Simulation time: 0 hr 3 min 32 sec) 
Heartbeat CPU 0 instructions: 6000000 cycles: 2514265 heartbeat IPC: 2.11139 cumulative IPC: 2.38638 (Simulation time: 0 hr 4 min 21 sec) 
Heartbeat CPU 0 instructions: 7000002 cycles: 2886808 heartbeat IPC: 2.68426 cumulative IPC: 2.42482 (Simulation time: 0 hr 5 min 7 sec) 
Heartbeat CPU 0 instructions: 8000000 cycles: 3312550 heartbeat IPC: 2.34884 cumulative IPC: 2.41506 (Simulation time: 0 hr 6 min 0 sec) 
Heartbeat CPU 0 instructions: 9000001 cycles: 3751135 heartbeat IPC: 2.28006 cumulative IPC: 2.39927 (Simulation time: 0 hr 6 min 47 sec) 
Heartbeat CPU 0 instructions: 10000002 cycles: 4163322 heartbeat IPC: 2.42609 cumulative IPC: 2.40193 (Simulation time: 0 hr 7 min 36 sec) 

Warmup complete CPU 0 instructions: 10000002 cycles: 4163322 (Simulation time: 0 hr 7 min 36 sec) 

Heartbeat CPU 0 instructions: 11000001 cycles: 7273756 heartbeat IPC: 0.321498 cumulative IPC: 0.321498 (Simulation time: 0 hr 8 min 37 sec) 
Heartbeat CPU 0 instructions: 12000000 cycles: 8621765 heartbeat IPC: 0.741834 cumulative IPC: 0.448587 (Simulation time: 0 hr 9 min 14 sec) 
Heartbeat CPU 0 instructions: 13000001 cycles: 11240975 heartbeat IPC: 0.381795 cumulative IPC: 0.423869 (Simulation time: 0 hr 10 min 10 sec) 
Heartbeat CPU 0 instructions: 14000002 cycles: 13671868 heartbeat IPC: 0.411372 cumulative IPC: 0.420674 (Simulation time: 0 hr 11 min 7 sec) 
Heartbeat CPU 0 instructions: 15000002 cycles: 16175557 heartbeat IPC: 0.399411 cumulative IPC: 0.416242 (Simulation time: 0 hr 11 min 53 sec) 
Heartbeat CPU 0 instructions: 16000000 cycles: 18955533 heartbeat IPC: 0.359715 cumulative IPC: 0.405619 (Simulation time: 0 hr 12 min 49 sec) 
Heartbeat CPU 0 instructions: 17000001 cycles: 21112383 heartbeat IPC: 0.46364 cumulative IPC: 0.413002 (Simulation time: 0 hr 13 min 49 sec) 
Heartbeat CPU 0 instructions: 18000000 cycles: 23090567 heartbeat IPC: 0.505514 cumulative IPC: 0.422671 (Simulation time: 0 hr 14 min 47 sec) 
Heartbeat CPU 0 instructions: 19000002 cycles: 26444130 heartbeat IPC: 0.298191 cumulative IPC: 0.403935 (Simulation time: 0 hr 15 min 50 sec) 
Heartbeat CPU 0 instructions: 20000000 cycles: 27783846 heartbeat IPC: 0.746425 cumulative IPC: 0.423361 (Simulation time: 0 hr 16 min 30 sec) 
Heartbeat CPU 0 instructions: 21000000 cycles: 29930759 heartbeat IPC: 0.465785 cumulative IPC: 0.426895 (Simulation time: 0 hr 17 min 18 sec) 
Heartbeat CPU 0 instructions: 22000000 cycles: 32506320 heartbeat IPC: 0.388265 cumulative IPC: 0.423385 (Simulation time: 0 hr 18 min 17 sec) 
Heartbeat CPU 0 instructions: 23000000 cycles: 34967243 heartbeat IPC: 0.406352 cumulative IPC: 0.422024 (Simulation time: 0 hr 19 min 4 sec) 
Heartbeat CPU 0 instructions: 24000000 cycles: 37486280 heartbeat IPC: 0.396977 cumulative IPC: 0.420131 (Simulation time: 0 hr 19 min 53 sec) 
Heartbeat CPU 0 instructions: 25000003 cycles: 39671852 heartbeat IPC: 0.457547 cumulative IPC: 0.422434 (Simulation time: 0 hr 20 min 59 sec) 
Heartbeat CPU 0 instructions: 26000001 cycles: 41806789 heartbeat IPC: 0.468397 cumulative IPC: 0.425041 (Simulation time: 0 hr 21 min 55 sec) 
Heartbeat CPU 0 instructions: 27000002 cycles: 45151616 heartbeat IPC: 0.298969 cumulative IPC: 0.414753 (Simulation time: 0 hr 23 min 1 sec) 
Heartbeat CPU 0 instructions: 28000000 cycles: 46490252 heartbeat IPC: 0.747028 cumulative IPC: 0.425261 (Simulation time: 0 hr 23 min 39 sec) 
Heartbeat CPU 0 instructions: 29000002 cycles: 48296819 heartbeat IPC: 0.553537 cumulative IPC: 0.430512 (Simulation time: 0 hr 24 min 21 sec) 
Heartbeat CPU 0 instructions: 30000000 cycles: 51042359 heartbeat IPC: 0.364226 cumulative IPC: 0.42663 (Simulation time: 0 hr 25 min 17 sec) 
Heartbeat CPU 0 instructions: 31000001 cycles: 53527307 heartbeat IPC: 0.402423 cumulative IPC: 0.425411 (Simulation time: 0 hr 26 min 3 sec) 
Heartbeat CPU 0 instructions: 32000000 cycles: 55975307 heartbeat IPC: 0.408496 cumulative IPC: 0.424612 (Simulation time: 0 hr 26 min 52 sec) 
Heartbeat CPU 0 instructions: 33000001 cycles: 59102664 heartbeat IPC: 0.319759 cumulative IPC: 0.418644 (Simulation time: 0 hr 28 min 0 sec) 
Heartbeat CPU 0 instructions: 34000003 cycles: 61086348 heartbeat IPC: 0.504114 cumulative IPC: 0.421622 (Simulation time: 0 hr 28 min 58 sec) 
Heartbeat CPU 0 instructions: 35000003 cycles: 64013583 heartbeat IPC: 0.341619 cumulative IPC: 0.417709 (Simulation time: 0 hr 29 min 55 sec) 
Heartbeat CPU 0 instructions: 36000000 cycles: 65346108 heartbeat IPC: 0.750453 cumulative IPC: 0.424956 (Simulation time: 0 hr 30 min 35 sec) 
Heartbeat CPU 0 instructions: 37000000 cycles: 67890568 heartbeat IPC: 0.393011 cumulative IPC: 0.423681 (Simulation time: 0 hr 31 min 29 sec) 
Heartbeat CPU 0 instructions: 38000001 cycles: 70197995 heartbeat IPC: 0.433384 cumulative IPC: 0.42402 (Simulation time: 0 hr 32 min 22 sec) 
Heartbeat CPU 0 instructions: 39000003 cycles: 72684594 heartbeat IPC: 0.402157 cumulative IPC: 0.423226 (Simulation time: 0 hr 33 min 7 sec) 
Heartbeat CPU 0 instructions: 40000000 cycles: 75399218 heartbeat IPC: 0.368374 cumulative IPC: 0.421136 (Simulation time: 0 hr 34 min 3 sec) 
Heartbeat CPU 0 instructions: 41000001 cycles: 77524733 heartbeat IPC: 0.470475 cumulative IPC: 0.422565 (Simulation time: 0 hr 35 min 4 sec) 
Heartbeat CPU 0 instructions: 42000003 cycles: 79475026 heartbeat IPC: 0.512744 cumulative IPC: 0.424901 (Simulation time: 0 hr 35 min 59 sec) 
Heartbeat CPU 0 instructions: 43000000 cycles: 82785811 heartbeat IPC: 0.302042 cumulative IPC: 0.419727 (Simulation time: 0 hr 37 min 2 sec) 
Heartbeat CPU 0 instructions: 44000000 cycles: 84122100 heartbeat IPC: 0.748341 cumulative IPC: 0.425219 (Simulation time: 0 hr 37 min 39 sec) 
Heartbeat CPU 0 instructions: 45000003 cycles: 86296298 heartbeat IPC: 0.459941 cumulative IPC: 0.426138 (Simulation time: 0 hr 38 min 26 sec) 
Heartbeat CPU 0 instructions: 46000003 cycles: 88904249 heartbeat IPC: 0.383443 cumulative IPC: 0.424824 (Simulation time: 0 hr 39 min 19 sec) 
Heartbeat CPU 0 instructions: 47000001 cycles: 91365387 heartbeat IPC: 0.406315 cumulative IPC: 0.424302 (Simulation time: 0 hr 40 min 3 sec) 
Heartbeat CPU 0 instructions: 48000000 cycles: 93861960 heartbeat IPC: 0.400549 cumulative IPC: 0.423641 (Simulation time: 0 hr 40 min 44 sec) 
Heartbeat CPU 0 instructions: 49000000 cycles: 97246911 heartbeat IPC: 0.295425 cumulative IPC: 0.418978 (Simulation time: 0 hr 41 min 53 sec) 
Heartbeat CPU 0 instructions: 50000003 cycles: 103098030 heartbeat IPC: 0.170908 cumulative IPC: 0.404307 (Simulation time: 0 hr 43 min 3 sec) 
Heartbeat CPU 0 instructions: 51000002 cycles: 105553604 heartbeat IPC: 0.407236 cumulative IPC: 0.404378 (Simulation time: 0 hr 44 min 6 sec) 
Heartbeat CPU 0 instructions: 52000000 cycles: 109564639 heartbeat IPC: 0.249312 cumulative IPC: 0.398477 (Simulation time: 0 hr 45 min 7 sec) 
Heartbeat CPU 0 instructions: 53000003 cycles: 112270529 heartbeat IPC: 0.369565 cumulative IPC: 0.397753 (Simulation time: 0 hr 46 min 4 sec) 
Heartbeat CPU 0 instructions: 54000000 cycles: 114797967 heartbeat IPC: 0.395656 cumulative IPC: 0.397705 (Simulation time: 0 hr 47 min 3 sec) 
Heartbeat CPU 0 instructions: 55000002 cycles: 118465947 heartbeat IPC: 0.27263 cumulative IPC: 0.393692 (Simulation time: 0 hr 47 min 56 sec) 
Heartbeat CPU 0 instructions: 56000000 cycles: 122063629 heartbeat IPC: 0.277956 cumulative IPC: 0.39016 (Simulation time: 0 hr 48 min 54 sec) 
Heartbeat CPU 0 instructions: 57000003 cycles: 124688148 heartbeat IPC: 0.381023 cumulative IPC: 0.389961 (Simulation time: 0 hr 49 min 44 sec) 
Heartbeat CPU 0 instructions: 58000002 cycles: 126905739 heartbeat IPC: 0.450939 cumulative IPC: 0.391063 (Simulation time: 0 hr 50 min 38 sec) 
Heartbeat CPU 0 instructions: 59000002 cycles: 128440328 heartbeat IPC: 0.65164 cumulative IPC: 0.39428 (Simulation time: 0 hr 51 min 26 sec) 
Heartbeat CPU 0 instructions: 60000000 cycles: 129633154 heartbeat IPC: 0.838344 cumulative IPC: 0.398502 (Simulation time: 0 hr 52 min 7 sec) 
Heartbeat CPU 0 instructions: 61000002 cycles: 132400996 heartbeat IPC: 0.361293 cumulative IPC: 0.397699 (Simulation time: 0 hr 53 min 4 sec) 
Heartbeat CPU 0 instructions: 62000002 cycles: 135089673 heartbeat IPC: 0.37193 cumulative IPC: 0.39717 (Simulation time: 0 hr 54 min 5 sec) 
Heartbeat CPU 0 instructions: 63000002 cycles: 137194128 heartbeat IPC: 0.475182 cumulative IPC: 0.398404 (Simulation time: 0 hr 55 min 2 sec) 
Heartbeat CPU 0 instructions: 64000000 cycles: 139607429 heartbeat IPC: 0.414369 cumulative IPC: 0.398688 (Simulation time: 0 hr 55 min 57 sec) 
Heartbeat CPU 0 instructions: 65000000 cycles: 143554982 heartbeat IPC: 0.253321 cumulative IPC: 0.394572 (Simulation time: 0 hr 57 min 5 sec) 
Heartbeat CPU 0 instructions: 66000001 cycles: 144918077 heartbeat IPC: 0.733625 cumulative IPC: 0.397855 (Simulation time: 0 hr 57 min 39 sec) 
Heartbeat CPU 0 instructions: 67000000 cycles: 146268292 heartbeat IPC: 0.740622 cumulative IPC: 0.401112 (Simulation time: 0 hr 58 min 14 sec) 
Heartbeat CPU 0 instructions: 68000000 cycles: 149550550 heartbeat IPC: 0.304668 cumulative IPC: 0.398935 (Simulation time: 0 hr 59 min 14 sec) 
Heartbeat CPU 0 instructions: 69000000 cycles: 152226052 heartbeat IPC: 0.373762 cumulative IPC: 0.39848 (Simulation time: 0 hr 59 min 57 sec) 
Heartbeat CPU 0 instructions: 70000003 cycles: 154740604 heartbeat IPC: 0.397686 cumulative IPC: 0.398466 (Simulation time: 1 hr 0 min 38 sec) 
Heartbeat CPU 0 instructions: 71000000 cycles: 157348870 heartbeat IPC: 0.383395 cumulative IPC: 0.39821 (Simulation time: 1 hr 1 min 34 sec) 
Heartbeat CPU 0 instructions: 72000000 cycles: 159958725 heartbeat IPC: 0.383163 cumulative IPC: 0.397958 (Simulation time: 1 hr 2 min 26 sec) 
Heartbeat CPU 0 instructions: 73000002 cycles: 162792989 heartbeat IPC: 0.352826 cumulative IPC: 0.397151 (Simulation time: 1 hr 3 min 25 sec) 
Heartbeat CPU 0 instructions: 74000000 cycles: 164781954 heartbeat IPC: 0.502773 cumulative IPC: 0.398459 (Simulation time: 1 hr 4 min 2 sec) 
Heartbeat CPU 0 instructions: 75000002 cycles: 166114965 heartbeat IPC: 0.750183 cumulative IPC: 0.401354 (Simulation time: 1 hr 4 min 35 sec) 
Heartbeat CPU 0 instructions: 76000000 cycles: 169230258 heartbeat IPC: 0.320996 cumulative IPC: 0.399838 (Simulation time: 1 hr 5 min 24 sec) 
Heartbeat CPU 0 instructions: 77000000 cycles: 171558088 heartbeat IPC: 0.429585 cumulative IPC: 0.400251 (Simulation time: 1 hr 6 min 2 sec) 
Heartbeat CPU 0 instructions: 78000003 cycles: 174021096 heartbeat IPC: 0.406009 cumulative IPC: 0.400335 (Simulation time: 1 hr 6 min 34 sec) 
Heartbeat CPU 0 instructions: 79000001 cycles: 177119222 heartbeat IPC: 0.322775 cumulative IPC: 0.398946 (Simulation time: 1 hr 7 min 23 sec) 
Heartbeat CPU 0 instructions: 80000000 cycles: 179645948 heartbeat IPC: 0.395769 cumulative IPC: 0.3989 (Simulation time: 1 hr 8 min 5 sec) 
Heartbeat CPU 0 instructions: 81000003 cycles: 182677163 heartbeat IPC: 0.329902 cumulative IPC: 0.397728 (Simulation time: 1 hr 8 min 58 sec) 
Heartbeat CPU 0 instructions: 82000000 cycles: 184422314 heartbeat IPC: 0.573015 cumulative IPC: 0.399425 (Simulation time: 1 hr 9 min 28 sec) 
Heartbeat CPU 0 instructions: 83000001 cycles: 185747454 heartbeat IPC: 0.754638 cumulative IPC: 0.402018 (Simulation time: 1 hr 9 min 58 sec) 
Heartbeat CPU 0 instructions: 84000000 cycles: 188857319 heartbeat IPC: 0.321557 cumulative IPC: 0.400663 (Simulation time: 1 hr 10 min 45 sec) 
Heartbeat CPU 0 instructions: 85000002 cycles: 191201164 heartbeat IPC: 0.42665 cumulative IPC: 0.400988 (Simulation time: 1 hr 11 min 14 sec) 
Heartbeat CPU 0 instructions: 86000000 cycles: 193728279 heartbeat IPC: 0.395707 cumulative IPC: 0.400918 (Simulation time: 1 hr 11 min 47 sec) 
Heartbeat CPU 0 instructions: 87000000 cycles: 196564261 heartbeat IPC: 0.352612 cumulative IPC: 0.400206 (Simulation time: 1 hr 12 min 37 sec) 
Heartbeat CPU 0 instructions: 88000000 cycles: 198770200 heartbeat IPC: 0.453322 cumulative IPC: 0.400808 (Simulation time: 1 hr 13 min 13 sec) 
Heartbeat CPU 0 instructions: 89000001 cycles: 202153844 heartbeat IPC: 0.29554 cumulative IPC: 0.399009 (Simulation time: 1 hr 13 min 59 sec) 
Heartbeat CPU 0 instructions: 90000002 cycles: 203500437 heartbeat IPC: 0.742616 cumulative IPC: 0.40133 (Simulation time: 1 hr 14 min 24 sec) 
Heartbeat CPU 0 instructions: 91000000 cycles: 204910459 heartbeat IPC: 0.709207 cumulative IPC: 0.403493 (Simulation time: 1 hr 14 min 49 sec) 
Heartbeat CPU 0 instructions: 92000000 cycles: 207875552 heartbeat IPC: 0.337258 cumulative IPC: 0.402529 (Simulation time: 1 hr 15 min 30 sec) 
Heartbeat CPU 0 instructions: 93000000 cycles: 210393744 heartbeat IPC: 0.39711 cumulative IPC: 0.402462 (Simulation time: 1 hr 15 min 59 sec) 
Heartbeat CPU 0 instructions: 94000001 cycles: 212799640 heartbeat IPC: 0.415646 cumulative IPC: 0.402614 (Simulation time: 1 hr 16 min 27 sec) 
Heartbeat CPU 0 instructions: 95000003 cycles: 215903618 heartbeat IPC: 0.322168 cumulative IPC: 0.401435 (Simulation time: 1 hr 17 min 13 sec) 
Heartbeat CPU 0 instructions: 96000000 cycles: 217854639 heartbeat IPC: 0.512551 cumulative IPC: 0.40245 (Simulation time: 1 hr 17 min 44 sec) 
Heartbeat CPU 0 instructions: 97000003 cycles: 221007624 heartbeat IPC: 0.317161 cumulative IPC: 0.40121 (Simulation time: 1 hr 18 min 15 sec) 
Heartbeat CPU 0 instructions: 98000003 cycles: 222344315 heartbeat IPC: 0.748116 cumulative IPC: 0.403335 (Simulation time: 1 hr 18 min 34 sec) 
Heartbeat CPU 0 instructions: 99000000 cycles: 224618992 heartbeat IPC: 0.439622 cumulative IPC: 0.403709 (Simulation time: 1 hr 18 min 57 sec) 
Heartbeat CPU 0 instructions: 100000000 cycles: 227122547 heartbeat IPC: 0.399432 cumulative IPC: 0.403661 (Simulation time: 1 hr 19 min 19 sec) 
Heartbeat CPU 0 instructions: 101000001 cycles: 229572368 heartbeat IPC: 0.408193 cumulative IPC: 0.403711 (Simulation time: 1 hr 19 min 41 sec) 
Heartbeat CPU 0 instructions: 102000002 cycles: 232147034 heartbeat IPC: 0.3884 cumulative IPC: 0.403538 (Simulation time: 1 hr 20 min 0 sec) 
Heartbeat CPU 0 instructions: 103000002 cycles: 235134217 heartbeat IPC: 0.334764 cumulative IPC: 0.402648 (Simulation time: 1 hr 20 min 26 sec) 
Heartbeat CPU 0 instructions: 104000000 cycles: 237351873 heartbeat IPC: 0.450926 cumulative IPC: 0.403107 (Simulation time: 1 hr 20 min 48 sec) 
Heartbeat CPU 0 instructions: 105000000 cycles: 239768508 heartbeat IPC: 0.413799 cumulative IPC: 0.403217 (Simulation time: 1 hr 21 min 6 sec) 
Heartbeat CPU 0 instructions: 106000001 cycles: 241097849 heartbeat IPC: 0.752253 cumulative IPC: 0.405175 (Simulation time: 1 hr 21 min 20 sec) 
Heartbeat CPU 0 instructions: 107000001 cycles: 244017474 heartbeat IPC: 0.34251 cumulative IPC: 0.404412 (Simulation time: 1 hr 21 min 37 sec) 
Heartbeat CPU 0 instructions: 108000000 cycles: 246192557 heartbeat IPC: 0.459752 cumulative IPC: 0.40491 (Simulation time: 1 hr 21 min 50 sec) 
Heartbeat CPU 0 instructions: 109000003 cycles: 248688801 heartbeat IPC: 0.400603 cumulative IPC: 0.404866 (Simulation time: 1 hr 22 min 3 sec) 
Heartbeat CPU 0 instructions: 110000001 cycles: 251597502 heartbeat IPC: 0.343795 cumulative IPC: 0.404148 (Simulation time: 1 hr 22 min 21 sec) 
Finished CPU 0 instructions: 100000003 cycles: 247434181 cummulative IPC: 0.404148 (Simulation time: 1 hr 22 min 21 sec) 

ChampSim completed all CPUs

Region of Interest Statistics

CPU 0 cummulative IPC: 0.404148 instructions: 100000003 cycles: 247434181
LLC TOTAL     ACCESS:    6600984  HIT:    3081927  MISS:    3519057
LLC LOAD      ACCESS:    1697454  HIT:     782529  MISS:     914925
LLC RFO       ACCESS:     658478  HIT:     302291  MISS:     356187
LLC PREFETCH  ACCESS:    2684415  HIT:     927658  MISS:    1756757
LLC WRITEBACK ACCESS:    1560637  HIT:    1069449  MISS:     491188
