
*** ChampSim Multicore Out-of-Order Simulator ***

Warmup Instructions: 50000000
Simulation Instructions: 100000000
Configuration: 2
Number of CPUs: 1
LLC sets: 2048
LLC ways: 16
Off-chip DRAM Channels: 1 Width: 64-bit Data Rate: 1600 MT/s

CPU 0 runs /datasets/cs240c-wi22-a00-public/data/Assignment2-gz/libquantum_964B.trace.gz
CPU 0 L1D next line prefetcher
CPU 0 L2C IP-based stride prefetcher
Initialize Hawkeye state
Heartbeat CPU 0 instructions: 1000002 cycles: 333341 heartbeat IPC: 2.99994 cumulative IPC: 2.99994 (Simulation time: 0 hr 0 min 25 sec) 
Heartbeat CPU 0 instructions: 2000001 cycles: 666674 heartbeat IPC: 3 cumulative IPC: 2.99997 (Simulation time: 0 hr 0 min 47 sec) 
Heartbeat CPU 0 instructions: 3000000 cycles: 1000007 heartbeat IPC: 3 cumulative IPC: 2.99998 (Simulation time: 0 hr 1 min 9 sec) 
Heartbeat CPU 0 instructions: 4000000 cycles: 1333341 heartbeat IPC: 2.99999 cumulative IPC: 2.99998 (Simulation time: 0 hr 1 min 32 sec) 
Heartbeat CPU 0 instructions: 5000000 cycles: 1666674 heartbeat IPC: 3 cumulative IPC: 2.99999 (Simulation time: 0 hr 1 min 53 sec) 
Heartbeat CPU 0 instructions: 6000002 cycles: 2000008 heartbeat IPC: 3 cumulative IPC: 2.99999 (Simulation time: 0 hr 2 min 13 sec) 
Heartbeat CPU 0 instructions: 7000001 cycles: 2331518 heartbeat IPC: 3.0165 cumulative IPC: 3.00234 (Simulation time: 0 hr 2 min 35 sec) 
Heartbeat CPU 0 instructions: 8000000 cycles: 2662240 heartbeat IPC: 3.02368 cumulative IPC: 3.00499 (Simulation time: 0 hr 2 min 59 sec) 
Heartbeat CPU 0 instructions: 9000001 cycles: 2992962 heartbeat IPC: 3.02369 cumulative IPC: 3.00705 (Simulation time: 0 hr 3 min 22 sec) 
Heartbeat CPU 0 instructions: 10000001 cycles: 3323684 heartbeat IPC: 3.02369 cumulative IPC: 3.00871 (Simulation time: 0 hr 3 min 42 sec) 
Heartbeat CPU 0 instructions: 11000000 cycles: 3654406 heartbeat IPC: 3.02368 cumulative IPC: 3.01007 (Simulation time: 0 hr 4 min 5 sec) 
Heartbeat CPU 0 instructions: 12000000 cycles: 3985113 heartbeat IPC: 3.02382 cumulative IPC: 3.01121 (Simulation time: 0 hr 4 min 29 sec) 
Heartbeat CPU 0 instructions: 13000001 cycles: 4315818 heartbeat IPC: 3.02385 cumulative IPC: 3.01218 (Simulation time: 0 hr 4 min 53 sec) 
Heartbeat CPU 0 instructions: 14000000 cycles: 4646523 heartbeat IPC: 3.02384 cumulative IPC: 3.01301 (Simulation time: 0 hr 5 min 15 sec) 
Heartbeat CPU 0 instructions: 15000003 cycles: 4977229 heartbeat IPC: 3.02384 cumulative IPC: 3.01373 (Simulation time: 0 hr 5 min 36 sec) 
Heartbeat CPU 0 instructions: 16000000 cycles: 5307934 heartbeat IPC: 3.02383 cumulative IPC: 3.01436 (Simulation time: 0 hr 5 min 57 sec) 
Heartbeat CPU 0 instructions: 17000000 cycles: 5638642 heartbeat IPC: 3.02382 cumulative IPC: 3.01491 (Simulation time: 0 hr 6 min 20 sec) 
Heartbeat CPU 0 instructions: 18000003 cycles: 5969365 heartbeat IPC: 3.02369 cumulative IPC: 3.0154 (Simulation time: 0 hr 6 min 39 sec) 
Heartbeat CPU 0 instructions: 19000002 cycles: 6300087 heartbeat IPC: 3.02368 cumulative IPC: 3.01583 (Simulation time: 0 hr 7 min 1 sec) 
Heartbeat CPU 0 instructions: 20000000 cycles: 6630808 heartbeat IPC: 3.02369 cumulative IPC: 3.01622 (Simulation time: 0 hr 7 min 20 sec) 
Heartbeat CPU 0 instructions: 21000003 cycles: 6961531 heartbeat IPC: 3.02369 cumulative IPC: 3.01658 (Simulation time: 0 hr 7 min 41 sec) 
Heartbeat CPU 0 instructions: 22000002 cycles: 7292253 heartbeat IPC: 3.02368 cumulative IPC: 3.0169 (Simulation time: 0 hr 8 min 0 sec) 
Heartbeat CPU 0 instructions: 23000000 cycles: 7622968 heartbeat IPC: 3.02375 cumulative IPC: 3.0172 (Simulation time: 0 hr 8 min 18 sec) 
Heartbeat CPU 0 instructions: 24000000 cycles: 7953674 heartbeat IPC: 3.02383 cumulative IPC: 3.01747 (Simulation time: 0 hr 8 min 38 sec) 
Heartbeat CPU 0 instructions: 25000000 cycles: 8284379 heartbeat IPC: 3.02384 cumulative IPC: 3.01773 (Simulation time: 0 hr 8 min 56 sec) 
Heartbeat CPU 0 instructions: 26000002 cycles: 8675744 heartbeat IPC: 2.55516 cumulative IPC: 2.99686 (Simulation time: 0 hr 9 min 22 sec) 
Heartbeat CPU 0 instructions: 27000000 cycles: 9096050 heartbeat IPC: 2.37921 cumulative IPC: 2.96832 (Simulation time: 0 hr 9 min 54 sec) 
Heartbeat CPU 0 instructions: 28000000 cycles: 9516352 heartbeat IPC: 2.37924 cumulative IPC: 2.9423 (Simulation time: 0 hr 10 min 26 sec) 
Heartbeat CPU 0 instructions: 29000002 cycles: 9936683 heartbeat IPC: 2.37908 cumulative IPC: 2.91848 (Simulation time: 0 hr 10 min 59 sec) 
Heartbeat CPU 0 instructions: 30000002 cycles: 10356994 heartbeat IPC: 2.37919 cumulative IPC: 2.89659 (Simulation time: 0 hr 11 min 31 sec) 
Heartbeat CPU 0 instructions: 31000000 cycles: 10777300 heartbeat IPC: 2.37921 cumulative IPC: 2.87642 (Simulation time: 0 hr 12 min 1 sec) 
Heartbeat CPU 0 instructions: 32000000 cycles: 11197602 heartbeat IPC: 2.37924 cumulative IPC: 2.85775 (Simulation time: 0 hr 12 min 29 sec) 
Heartbeat CPU 0 instructions: 33000002 cycles: 11617933 heartbeat IPC: 2.37908 cumulative IPC: 2.84044 (Simulation time: 0 hr 13 min 0 sec) 
Heartbeat CPU 0 instructions: 34000002 cycles: 12038244 heartbeat IPC: 2.37919 cumulative IPC: 2.82433 (Simulation time: 0 hr 13 min 30 sec) 
Heartbeat CPU 0 instructions: 35000000 cycles: 12458550 heartbeat IPC: 2.37921 cumulative IPC: 2.80932 (Simulation time: 0 hr 13 min 59 sec) 
Heartbeat CPU 0 instructions: 36000000 cycles: 12862260 heartbeat IPC: 2.47703 cumulative IPC: 2.79889 (Simulation time: 0 hr 14 min 29 sec) 
Heartbeat CPU 0 instructions: 37000001 cycles: 13195593 heartbeat IPC: 3.00001 cumulative IPC: 2.80397 (Simulation time: 0 hr 14 min 47 sec) 
Heartbeat CPU 0 instructions: 38000000 cycles: 13528926 heartbeat IPC: 3 cumulative IPC: 2.8088 (Simulation time: 0 hr 15 min 4 sec) 
Heartbeat CPU 0 instructions: 39000003 cycles: 13862260 heartbeat IPC: 3 cumulative IPC: 2.81339 (Simulation time: 0 hr 15 min 25 sec) 
Heartbeat CPU 0 instructions: 40000000 cycles: 14195593 heartbeat IPC: 2.99999 cumulative IPC: 2.81778 (Simulation time: 0 hr 15 min 44 sec) 
Heartbeat CPU 0 instructions: 41000001 cycles: 14528926 heartbeat IPC: 3.00001 cumulative IPC: 2.82196 (Simulation time: 0 hr 16 min 3 sec) 
Heartbeat CPU 0 instructions: 42000000 cycles: 14862259 heartbeat IPC: 3 cumulative IPC: 2.82595 (Simulation time: 0 hr 16 min 20 sec) 
Heartbeat CPU 0 instructions: 43000001 cycles: 15195593 heartbeat IPC: 3 cumulative IPC: 2.82977 (Simulation time: 0 hr 16 min 39 sec) 
Heartbeat CPU 0 instructions: 44000000 cycles: 15528926 heartbeat IPC: 3 cumulative IPC: 2.83342 (Simulation time: 0 hr 16 min 59 sec) 
Heartbeat CPU 0 instructions: 45000002 cycles: 15862260 heartbeat IPC: 3 cumulative IPC: 2.83692 (Simulation time: 0 hr 17 min 16 sec) 
Heartbeat CPU 0 instructions: 46000001 cycles: 16195593 heartbeat IPC: 3 cumulative IPC: 2.84028 (Simulation time: 0 hr 17 min 34 sec) 
Heartbeat CPU 0 instructions: 47000000 cycles: 16528926 heartbeat IPC: 3 cumulative IPC: 2.8435 (Simulation time: 0 hr 17 min 55 sec) 
Heartbeat CPU 0 instructions: 48000000 cycles: 16862260 heartbeat IPC: 2.99999 cumulative IPC: 2.84659 (Simulation time: 0 hr 18 min 14 sec) 
Heartbeat CPU 0 instructions: 49000003 cycles: 17195596 heartbeat IPC: 2.99998 cumulative IPC: 2.84957 (Simulation time: 0 hr 18 min 36 sec) 
Heartbeat CPU 0 instructions: 50000001 cycles: 17528926 heartbeat IPC: 3.00002 cumulative IPC: 2.85243 (Simulation time: 0 hr 18 min 58 sec) 

Warmup complete CPU 0 instructions: 50000001 cycles: 17528926 (Simulation time: 0 hr 18 min 58 sec) 

Heartbeat CPU 0 instructions: 51000000 cycles: 18995168 heartbeat IPC: 0.682015 cumulative IPC: 0.682015 (Simulation time: 0 hr 19 min 33 sec) 
Heartbeat CPU 0 instructions: 52000000 cycles: 20461433 heartbeat IPC: 0.682005 cumulative IPC: 0.68201 (Simulation time: 0 hr 20 min 8 sec) 
Heartbeat CPU 0 instructions: 53000000 cycles: 21924533 heartbeat IPC: 0.68348 cumulative IPC: 0.682499 (Simulation time: 0 hr 20 min 40 sec) 
Heartbeat CPU 0 instructions: 54000002 cycles: 23154666 heartbeat IPC: 0.812922 cumulative IPC: 0.711018 (Simulation time: 0 hr 21 min 11 sec) 
Heartbeat CPU 0 instructions: 55000002 cycles: 24329442 heartbeat IPC: 0.851226 cumulative IPC: 0.735238 (Simulation time: 0 hr 21 min 41 sec) 
Heartbeat CPU 0 instructions: 56000000 cycles: 26073095 heartbeat IPC: 0.573507 cumulative IPC: 0.702233 (Simulation time: 0 hr 22 min 11 sec) 
Heartbeat CPU 0 instructions: 57000001 cycles: 27826632 heartbeat IPC: 0.570277 cumulative IPC: 0.679763 (Simulation time: 0 hr 22 min 39 sec) 
Heartbeat CPU 0 instructions: 58000000 cycles: 29576100 heartbeat IPC: 0.571602 cumulative IPC: 0.664056 (Simulation time: 0 hr 23 min 9 sec) 
Heartbeat CPU 0 instructions: 59000003 cycles: 31326940 heartbeat IPC: 0.571156 cumulative IPC: 0.652268 (Simulation time: 0 hr 23 min 40 sec) 
Heartbeat CPU 0 instructions: 60000000 cycles: 33074360 heartbeat IPC: 0.572271 cumulative IPC: 0.643276 (Simulation time: 0 hr 24 min 8 sec) 
Heartbeat CPU 0 instructions: 61000002 cycles: 34824374 heartbeat IPC: 0.571425 cumulative IPC: 0.636006 (Simulation time: 0 hr 24 min 37 sec) 
Heartbeat CPU 0 instructions: 62000001 cycles: 36577483 heartbeat IPC: 0.570415 cumulative IPC: 0.629969 (Simulation time: 0 hr 25 min 6 sec) 
Heartbeat CPU 0 instructions: 63000001 cycles: 38325416 heartbeat IPC: 0.572104 cumulative IPC: 0.625106 (Simulation time: 0 hr 25 min 36 sec) 
Heartbeat CPU 0 instructions: 64000000 cycles: 40080552 heartbeat IPC: 0.569756 cumulative IPC: 0.620798 (Simulation time: 0 hr 26 min 5 sec) 
Heartbeat CPU 0 instructions: 65000002 cycles: 41832437 heartbeat IPC: 0.570815 cumulative IPC: 0.617195 (Simulation time: 0 hr 26 min 34 sec) 
Heartbeat CPU 0 instructions: 66000002 cycles: 43579749 heartbeat IPC: 0.572308 cumulative IPC: 0.614184 (Simulation time: 0 hr 27 min 5 sec) 
Heartbeat CPU 0 instructions: 67000000 cycles: 45329677 heartbeat IPC: 0.571451 cumulative IPC: 0.611494 (Simulation time: 0 hr 27 min 33 sec) 
Heartbeat CPU 0 instructions: 68000000 cycles: 47078127 heartbeat IPC: 0.571935 cumulative IPC: 0.609154 (Simulation time: 0 hr 28 min 2 sec) 
Heartbeat CPU 0 instructions: 69000000 cycles: 48828940 heartbeat IPC: 0.571163 cumulative IPC: 0.607028 (Simulation time: 0 hr 28 min 32 sec) 
Heartbeat CPU 0 instructions: 70000002 cycles: 50576564 heartbeat IPC: 0.572207 cumulative IPC: 0.605187 (Simulation time: 0 hr 29 min 1 sec) 
Heartbeat CPU 0 instructions: 71000001 cycles: 52328721 heartbeat IPC: 0.570725 cumulative IPC: 0.603452 (Simulation time: 0 hr 29 min 29 sec) 
Heartbeat CPU 0 instructions: 72000000 cycles: 54065795 heartbeat IPC: 0.57568 cumulative IPC: 0.602131 (Simulation time: 0 hr 29 min 59 sec) 
Heartbeat CPU 0 instructions: 73000000 cycles: 55493663 heartbeat IPC: 0.700345 cumulative IPC: 0.605825 (Simulation time: 0 hr 30 min 27 sec) 
Heartbeat CPU 0 instructions: 74000000 cycles: 56909337 heartbeat IPC: 0.706377 cumulative IPC: 0.60944 (Simulation time: 0 hr 30 min 56 sec) 
Heartbeat CPU 0 instructions: 75000000 cycles: 59504364 heartbeat IPC: 0.385352 cumulative IPC: 0.595586 (Simulation time: 0 hr 31 min 35 sec) 
Heartbeat CPU 0 instructions: 76000000 cycles: 62130881 heartbeat IPC: 0.380732 cumulative IPC: 0.582934 (Simulation time: 0 hr 32 min 14 sec) 
Heartbeat CPU 0 instructions: 77000000 cycles: 64756942 heartbeat IPC: 0.380798 cumulative IPC: 0.571695 (Simulation time: 0 hr 32 min 57 sec) 
Heartbeat CPU 0 instructions: 78000000 cycles: 67378991 heartbeat IPC: 0.381381 cumulative IPC: 0.561684 (Simulation time: 0 hr 33 min 37 sec) 
Heartbeat CPU 0 instructions: 79000000 cycles: 69999091 heartbeat IPC: 0.381665 cumulative IPC: 0.552695 (Simulation time: 0 hr 34 min 18 sec) 
Heartbeat CPU 0 instructions: 80000000 cycles: 72637842 heartbeat IPC: 0.378967 cumulative IPC: 0.544376 (Simulation time: 0 hr 34 min 55 sec) 
Heartbeat CPU 0 instructions: 81000000 cycles: 75215065 heartbeat IPC: 0.388015 cumulative IPC: 0.537391 (Simulation time: 0 hr 35 min 33 sec) 
Heartbeat CPU 0 instructions: 82000000 cycles: 77531401 heartbeat IPC: 0.431716 cumulative IPC: 0.533311 (Simulation time: 0 hr 36 min 10 sec) 
Heartbeat CPU 0 instructions: 83000000 cycles: 79878242 heartbeat IPC: 0.426105 cumulative IPC: 0.529276 (Simulation time: 0 hr 36 min 52 sec) 
Heartbeat CPU 0 instructions: 84000000 cycles: 82150244 heartbeat IPC: 0.44014 cumulative IPC: 0.526142 (Simulation time: 0 hr 37 min 27 sec) 
Heartbeat CPU 0 instructions: 85000001 cycles: 83826443 heartbeat IPC: 0.596588 cumulative IPC: 0.527923 (Simulation time: 0 hr 38 min 2 sec) 
Heartbeat CPU 0 instructions: 86000000 cycles: 85337002 heartbeat IPC: 0.662006 cumulative IPC: 0.53091 (Simulation time: 0 hr 38 min 34 sec) 
Heartbeat CPU 0 instructions: 87000003 cycles: 86847077 heartbeat IPC: 0.662221 cumulative IPC: 0.533771 (Simulation time: 0 hr 39 min 6 sec) 
Heartbeat CPU 0 instructions: 88000000 cycles: 88356953 heartbeat IPC: 0.662304 cumulative IPC: 0.536511 (Simulation time: 0 hr 39 min 39 sec) 
Heartbeat CPU 0 instructions: 89000001 cycles: 89866750 heartbeat IPC: 0.662341 cumulative IPC: 0.539137 (Simulation time: 0 hr 40 min 10 sec) 
Heartbeat CPU 0 instructions: 90000000 cycles: 91376538 heartbeat IPC: 0.662344 cumulative IPC: 0.541656 (Simulation time: 0 hr 40 min 44 sec) 
Heartbeat CPU 0 instructions: 91000001 cycles: 92886005 heartbeat IPC: 0.662486 cumulative IPC: 0.544076 (Simulation time: 0 hr 41 min 16 sec) 
Heartbeat CPU 0 instructions: 92000000 cycles: 94395861 heartbeat IPC: 0.662314 cumulative IPC: 0.546399 (Simulation time: 0 hr 41 min 48 sec) 
Heartbeat CPU 0 instructions: 93000002 cycles: 95905859 heartbeat IPC: 0.662254 cumulative IPC: 0.548631 (Simulation time: 0 hr 42 min 18 sec) 
Heartbeat CPU 0 instructions: 94000001 cycles: 97415961 heartbeat IPC: 0.662206 cumulative IPC: 0.550778 (Simulation time: 0 hr 42 min 48 sec) 
Heartbeat CPU 0 instructions: 95000000 cycles: 98925032 heartbeat IPC: 0.662659 cumulative IPC: 0.552852 (Simulation time: 0 hr 43 min 20 sec) 
Heartbeat CPU 0 instructions: 96000000 cycles: 100415874 heartbeat IPC: 0.670762 cumulative IPC: 0.554973 (Simulation time: 0 hr 43 min 51 sec) 
Heartbeat CPU 0 instructions: 97000002 cycles: 101742613 heartbeat IPC: 0.753729 cumulative IPC: 0.558104 (Simulation time: 0 hr 44 min 25 sec) 
Heartbeat CPU 0 instructions: 98000001 cycles: 103194195 heartbeat IPC: 0.688903 cumulative IPC: 0.56032 (Simulation time: 0 hr 44 min 56 sec) 
Heartbeat CPU 0 instructions: 99000000 cycles: 104704189 heartbeat IPC: 0.662254 cumulative IPC: 0.562086 (Simulation time: 0 hr 45 min 26 sec) 
Heartbeat CPU 0 instructions: 100000000 cycles: 106214110 heartbeat IPC: 0.662286 cumulative IPC: 0.563792 (Simulation time: 0 hr 45 min 57 sec) 
Heartbeat CPU 0 instructions: 101000000 cycles: 107724029 heartbeat IPC: 0.662287 cumulative IPC: 0.565441 (Simulation time: 0 hr 46 min 26 sec) 
Heartbeat CPU 0 instructions: 102000002 cycles: 109229052 heartbeat IPC: 0.664443 cumulative IPC: 0.567066 (Simulation time: 0 hr 46 min 57 sec) 
Heartbeat CPU 0 instructions: 103000001 cycles: 110711512 heartbeat IPC: 0.674554 cumulative IPC: 0.568776 (Simulation time: 0 hr 47 min 28 sec) 
Heartbeat CPU 0 instructions: 104000000 cycles: 112943094 heartbeat IPC: 0.448112 cumulative IPC: 0.565954 (Simulation time: 0 hr 48 min 4 sec) 
Heartbeat CPU 0 instructions: 105000000 cycles: 115285654 heartbeat IPC: 0.426883 cumulative IPC: 0.562621 (Simulation time: 0 hr 48 min 40 sec) 
Heartbeat CPU 0 instructions: 106000000 cycles: 117636355 heartbeat IPC: 0.425405 cumulative IPC: 0.559399 (Simulation time: 0 hr 49 min 17 sec) 
Heartbeat CPU 0 instructions: 107000000 cycles: 119999545 heartbeat IPC: 0.423157 cumulative IPC: 0.556257 (Simulation time: 0 hr 49 min 54 sec) 
Heartbeat CPU 0 instructions: 108000000 cycles: 122368075 heartbeat IPC: 0.422203 cumulative IPC: 0.553228 (Simulation time: 0 hr 50 min 28 sec) 
Heartbeat CPU 0 instructions: 109000000 cycles: 124728547 heartbeat IPC: 0.423644 cumulative IPC: 0.550375 (Simulation time: 0 hr 51 min 14 sec) 
Heartbeat CPU 0 instructions: 110000000 cycles: 126928270 heartbeat IPC: 0.454603 cumulative IPC: 0.548449 (Simulation time: 0 hr 51 min 57 sec) 
Heartbeat CPU 0 instructions: 111000000 cycles: 129151275 heartbeat IPC: 0.449842 cumulative IPC: 0.546486 (Simulation time: 0 hr 52 min 40 sec) 
Heartbeat CPU 0 instructions: 112000000 cycles: 131505019 heartbeat IPC: 0.424855 cumulative IPC: 0.543974 (Simulation time: 0 hr 53 min 24 sec) 
Heartbeat CPU 0 instructions: 113000000 cycles: 133836742 heartbeat IPC: 0.428867 cumulative IPC: 0.541666 (Simulation time: 0 hr 54 min 9 sec) 
Heartbeat CPU 0 instructions: 114000002 cycles: 135904389 heartbeat IPC: 0.483643 cumulative IPC: 0.540653 (Simulation time: 0 hr 54 min 49 sec) 
Heartbeat CPU 0 instructions: 115000001 cycles: 137654239 heartbeat IPC: 0.571477 cumulative IPC: 0.541102 (Simulation time: 0 hr 55 min 22 sec) 
Heartbeat CPU 0 instructions: 116000000 cycles: 139399675 heartbeat IPC: 0.572922 cumulative IPC: 0.541557 (Simulation time: 0 hr 55 min 54 sec) 
Heartbeat CPU 0 instructions: 117000002 cycles: 141150918 heartbeat IPC: 0.571024 cumulative IPC: 0.541975 (Simulation time: 0 hr 56 min 29 sec) 
Heartbeat CPU 0 instructions: 118000002 cycles: 142896133 heartbeat IPC: 0.572995 cumulative IPC: 0.542407 (Simulation time: 0 hr 57 min 3 sec) 
Heartbeat CPU 0 instructions: 119000002 cycles: 144643498 heartbeat IPC: 0.57229 cumulative IPC: 0.542817 (Simulation time: 0 hr 57 min 37 sec) 
Heartbeat CPU 0 instructions: 120000000 cycles: 146388277 heartbeat IPC: 0.573137 cumulative IPC: 0.543228 (Simulation time: 0 hr 58 min 9 sec) 
Heartbeat CPU 0 instructions: 121000000 cycles: 148136884 heartbeat IPC: 0.571884 cumulative IPC: 0.543612 (Simulation time: 0 hr 58 min 43 sec) 
Heartbeat CPU 0 instructions: 122000001 cycles: 149880812 heartbeat IPC: 0.573419 cumulative IPC: 0.544004 (Simulation time: 0 hr 59 min 17 sec) 
Heartbeat CPU 0 instructions: 123000000 cycles: 151620993 heartbeat IPC: 0.574652 cumulative IPC: 0.544402 (Simulation time: 0 hr 59 min 53 sec) 
Heartbeat CPU 0 instructions: 124000000 cycles: 153368724 heartbeat IPC: 0.57217 cumulative IPC: 0.544759 (Simulation time: 1 hr 0 min 27 sec) 
Heartbeat CPU 0 instructions: 125000001 cycles: 155099607 heartbeat IPC: 0.57774 cumulative IPC: 0.545174 (Simulation time: 1 hr 1 min 1 sec) 
Heartbeat CPU 0 instructions: 126000000 cycles: 156705225 heartbeat IPC: 0.622813 cumulative IPC: 0.54607 (Simulation time: 1 hr 1 min 33 sec) 
Heartbeat CPU 0 instructions: 127000003 cycles: 158276724 heartbeat IPC: 0.636337 cumulative IPC: 0.547078 (Simulation time: 1 hr 2 min 8 sec) 
Heartbeat CPU 0 instructions: 128000000 cycles: 160025273 heartbeat IPC: 0.571901 cumulative IPC: 0.547382 (Simulation time: 1 hr 2 min 42 sec) 
Heartbeat CPU 0 instructions: 129000000 cycles: 161774779 heartbeat IPC: 0.57159 cumulative IPC: 0.547676 (Simulation time: 1 hr 3 min 17 sec) 
Heartbeat CPU 0 instructions: 130000001 cycles: 163521678 heartbeat IPC: 0.572443 cumulative IPC: 0.547972 (Simulation time: 1 hr 3 min 51 sec) 
Heartbeat CPU 0 instructions: 131000000 cycles: 165272736 heartbeat IPC: 0.571083 cumulative IPC: 0.548246 (Simulation time: 1 hr 4 min 23 sec) 
Heartbeat CPU 0 instructions: 132000000 cycles: 166979032 heartbeat IPC: 0.586065 cumulative IPC: 0.548678 (Simulation time: 1 hr 4 min 56 sec) 
Heartbeat CPU 0 instructions: 133000000 cycles: 168858961 heartbeat IPC: 0.531935 cumulative IPC: 0.54847 (Simulation time: 1 hr 5 min 32 sec) 
Heartbeat CPU 0 instructions: 134000000 cycles: 171174876 heartbeat IPC: 0.431795 cumulative IPC: 0.546711 (Simulation time: 1 hr 6 min 17 sec) 
Heartbeat CPU 0 instructions: 135000000 cycles: 173505114 heartbeat IPC: 0.429141 cumulative IPC: 0.544955 (Simulation time: 1 hr 7 min 2 sec) 
Heartbeat CPU 0 instructions: 136000000 cycles: 175827574 heartbeat IPC: 0.430578 cumulative IPC: 0.543277 (Simulation time: 1 hr 7 min 46 sec) 
Heartbeat CPU 0 instructions: 137000000 cycles: 178168141 heartbeat IPC: 0.427247 cumulative IPC: 0.541586 (Simulation time: 1 hr 8 min 28 sec) 
Heartbeat CPU 0 instructions: 138000000 cycles: 180488597 heartbeat IPC: 0.43095 cumulative IPC: 0.540011 (Simulation time: 1 hr 9 min 13 sec) 
Heartbeat CPU 0 instructions: 139000000 cycles: 182808537 heartbeat IPC: 0.431046 cumulative IPC: 0.538481 (Simulation time: 1 hr 9 min 56 sec) 
Heartbeat CPU 0 instructions: 140000000 cycles: 184799141 heartbeat IPC: 0.50236 cumulative IPC: 0.538052 (Simulation time: 1 hr 10 min 35 sec) 
Heartbeat CPU 0 instructions: 141000000 cycles: 187104153 heartbeat IPC: 0.433837 cumulative IPC: 0.536635 (Simulation time: 1 hr 11 min 19 sec) 
Heartbeat CPU 0 instructions: 142000000 cycles: 189425415 heartbeat IPC: 0.4308 cumulative IPC: 0.535206 (Simulation time: 1 hr 12 min 3 sec) 
Heartbeat CPU 0 instructions: 143000000 cycles: 191581244 heartbeat IPC: 0.463859 cumulative IPC: 0.534322 (Simulation time: 1 hr 12 min 44 sec) 
Heartbeat CPU 0 instructions: 144000000 cycles: 193405798 heartbeat IPC: 0.548079 cumulative IPC: 0.534465 (Simulation time: 1 hr 13 min 16 sec) 
Heartbeat CPU 0 instructions: 145000002 cycles: 195155001 heartbeat IPC: 0.57169 cumulative IPC: 0.534831 (Simulation time: 1 hr 13 min 48 sec) 
Heartbeat CPU 0 instructions: 146000001 cycles: 196904403 heartbeat IPC: 0.571623 cumulative IPC: 0.53519 (Simulation time: 1 hr 14 min 19 sec) 
Heartbeat CPU 0 instructions: 147000000 cycles: 198651237 heartbeat IPC: 0.572464 cumulative IPC: 0.53555 (Simulation time: 1 hr 14 min 48 sec) 
Heartbeat CPU 0 instructions: 148000000 cycles: 200402747 heartbeat IPC: 0.570936 cumulative IPC: 0.535889 (Simulation time: 1 hr 15 min 18 sec) 
Heartbeat CPU 0 instructions: 149000002 cycles: 202147660 heartbeat IPC: 0.573096 cumulative IPC: 0.53624 (Simulation time: 1 hr 15 min 47 sec) 
Heartbeat CPU 0 instructions: 150000000 cycles: 203892818 heartbeat IPC: 0.573013 cumulative IPC: 0.536585 (Simulation time: 1 hr 16 min 19 sec) 
Finished CPU 0 instructions: 100000001 cycles: 186363893 cummulative IPC: 0.536585 (Simulation time: 1 hr 16 min 19 sec) 

ChampSim completed all CPUs

Region of Interest Statistics

CPU 0 cummulative IPC: 0.536585 instructions: 100000001 cycles: 186363893
LLC TOTAL     ACCESS:    5216164  HIT:     501037  MISS:    4715127
LLC LOAD      ACCESS:    1222714  HIT:      71270  MISS:    1151444
LLC RFO       ACCESS:         28  HIT:         25  MISS:          3
LLC PREFETCH  ACCESS:    2244369  HIT:     121995  MISS:    2122374
LLC WRITEBACK ACCESS:    1749053  HIT:     307747  MISS:    1441306
OPTgen accesses: 20857
OPTgen hits: 263
OPTgen hit rate: 1.26097


