
*** ChampSim Multicore Out-of-Order Simulator ***

Warmup Instructions: 50000000
Simulation Instructions: 100000000
Configuration: 2
Number of CPUs: 1
LLC sets: 2048
LLC ways: 16
Off-chip DRAM Channels: 1 Width: 64-bit Data Rate: 1600 MT/s

CPU 0 runs /datasets/cs240c-wi22-a00-public/data/Assignment2-gz/omnetpp_340B.trace.gz
CPU 0 L1D next line prefetcher
CPU 0 L2C IP-based stride prefetcher
Initialize Hawkeye state
Heartbeat CPU 0 instructions: 1000001 cycles: 576945 heartbeat IPC: 1.73327 cumulative IPC: 1.73327 (Simulation time: 0 hr 0 min 45 sec) 
Heartbeat CPU 0 instructions: 2000000 cycles: 1160881 heartbeat IPC: 1.71251 cumulative IPC: 1.72283 (Simulation time: 0 hr 1 min 31 sec) 
Heartbeat CPU 0 instructions: 3000001 cycles: 1758199 heartbeat IPC: 1.67415 cumulative IPC: 1.70629 (Simulation time: 0 hr 2 min 16 sec) 
Heartbeat CPU 0 instructions: 4000000 cycles: 2379253 heartbeat IPC: 1.61016 cumulative IPC: 1.6812 (Simulation time: 0 hr 3 min 1 sec) 
Heartbeat CPU 0 instructions: 5000002 cycles: 2954794 heartbeat IPC: 1.7375 cumulative IPC: 1.69217 (Simulation time: 0 hr 3 min 41 sec) 
Heartbeat CPU 0 instructions: 6000003 cycles: 3556245 heartbeat IPC: 1.66265 cumulative IPC: 1.68717 (Simulation time: 0 hr 4 min 24 sec) 
Heartbeat CPU 0 instructions: 7000003 cycles: 4205656 heartbeat IPC: 1.53986 cumulative IPC: 1.66443 (Simulation time: 0 hr 5 min 11 sec) 
Heartbeat CPU 0 instructions: 8000000 cycles: 4800173 heartbeat IPC: 1.68203 cumulative IPC: 1.66661 (Simulation time: 0 hr 5 min 54 sec) 
Heartbeat CPU 0 instructions: 9000002 cycles: 5433431 heartbeat IPC: 1.57914 cumulative IPC: 1.65641 (Simulation time: 0 hr 6 min 33 sec) 
Heartbeat CPU 0 instructions: 10000002 cycles: 6028009 heartbeat IPC: 1.68187 cumulative IPC: 1.65892 (Simulation time: 0 hr 7 min 17 sec) 
Heartbeat CPU 0 instructions: 11000003 cycles: 6627489 heartbeat IPC: 1.66811 cumulative IPC: 1.65975 (Simulation time: 0 hr 8 min 2 sec) 
Heartbeat CPU 0 instructions: 12000000 cycles: 7229946 heartbeat IPC: 1.65986 cumulative IPC: 1.65976 (Simulation time: 0 hr 8 min 42 sec) 
Heartbeat CPU 0 instructions: 13000002 cycles: 7833518 heartbeat IPC: 1.65681 cumulative IPC: 1.65954 (Simulation time: 0 hr 9 min 19 sec) 
Heartbeat CPU 0 instructions: 14000000 cycles: 8429349 heartbeat IPC: 1.67832 cumulative IPC: 1.66086 (Simulation time: 0 hr 9 min 57 sec) 
Heartbeat CPU 0 instructions: 15000001 cycles: 9020997 heartbeat IPC: 1.6902 cumulative IPC: 1.66279 (Simulation time: 0 hr 10 min 39 sec) 
Heartbeat CPU 0 instructions: 16000000 cycles: 9644182 heartbeat IPC: 1.60466 cumulative IPC: 1.65903 (Simulation time: 0 hr 11 min 23 sec) 
Heartbeat CPU 0 instructions: 17000000 cycles: 10249991 heartbeat IPC: 1.65069 cumulative IPC: 1.65854 (Simulation time: 0 hr 12 min 4 sec) 
Heartbeat CPU 0 instructions: 18000000 cycles: 10870347 heartbeat IPC: 1.61198 cumulative IPC: 1.65588 (Simulation time: 0 hr 12 min 46 sec) 
Heartbeat CPU 0 instructions: 19000000 cycles: 11501950 heartbeat IPC: 1.58327 cumulative IPC: 1.65189 (Simulation time: 0 hr 13 min 30 sec) 
Heartbeat CPU 0 instructions: 20000000 cycles: 12088117 heartbeat IPC: 1.706 cumulative IPC: 1.65452 (Simulation time: 0 hr 14 min 12 sec) 
Heartbeat CPU 0 instructions: 21000000 cycles: 12685620 heartbeat IPC: 1.67363 cumulative IPC: 1.65542 (Simulation time: 0 hr 14 min 49 sec) 
Heartbeat CPU 0 instructions: 22000001 cycles: 13300091 heartbeat IPC: 1.62742 cumulative IPC: 1.65412 (Simulation time: 0 hr 15 min 28 sec) 
Heartbeat CPU 0 instructions: 23000001 cycles: 13922105 heartbeat IPC: 1.60768 cumulative IPC: 1.65205 (Simulation time: 0 hr 16 min 4 sec) 
Heartbeat CPU 0 instructions: 24000000 cycles: 14545106 heartbeat IPC: 1.60513 cumulative IPC: 1.65004 (Simulation time: 0 hr 16 min 41 sec) 
Heartbeat CPU 0 instructions: 25000001 cycles: 15161923 heartbeat IPC: 1.62123 cumulative IPC: 1.64887 (Simulation time: 0 hr 17 min 18 sec) 
Heartbeat CPU 0 instructions: 26000001 cycles: 15752671 heartbeat IPC: 1.69277 cumulative IPC: 1.65051 (Simulation time: 0 hr 17 min 55 sec) 
Heartbeat CPU 0 instructions: 27000000 cycles: 16323440 heartbeat IPC: 1.75202 cumulative IPC: 1.65406 (Simulation time: 0 hr 18 min 34 sec) 
Heartbeat CPU 0 instructions: 28000000 cycles: 16918950 heartbeat IPC: 1.67923 cumulative IPC: 1.65495 (Simulation time: 0 hr 19 min 19 sec) 
Heartbeat CPU 0 instructions: 29000003 cycles: 17542655 heartbeat IPC: 1.60333 cumulative IPC: 1.65311 (Simulation time: 0 hr 20 min 0 sec) 
Heartbeat CPU 0 instructions: 30000003 cycles: 18119765 heartbeat IPC: 1.73277 cumulative IPC: 1.65565 (Simulation time: 0 hr 20 min 42 sec) 
Heartbeat CPU 0 instructions: 31000001 cycles: 18728711 heartbeat IPC: 1.64218 cumulative IPC: 1.65521 (Simulation time: 0 hr 21 min 23 sec) 
Heartbeat CPU 0 instructions: 32000000 cycles: 19334096 heartbeat IPC: 1.65184 cumulative IPC: 1.65511 (Simulation time: 0 hr 22 min 6 sec) 
Heartbeat CPU 0 instructions: 33000001 cycles: 19914079 heartbeat IPC: 1.72419 cumulative IPC: 1.65712 (Simulation time: 0 hr 22 min 43 sec) 
Heartbeat CPU 0 instructions: 34000001 cycles: 20564988 heartbeat IPC: 1.53631 cumulative IPC: 1.6533 (Simulation time: 0 hr 23 min 20 sec) 
Heartbeat CPU 0 instructions: 35000002 cycles: 21145418 heartbeat IPC: 1.72286 cumulative IPC: 1.65521 (Simulation time: 0 hr 24 min 0 sec) 
Heartbeat CPU 0 instructions: 36000000 cycles: 21754930 heartbeat IPC: 1.64065 cumulative IPC: 1.6548 (Simulation time: 0 hr 24 min 39 sec) 
Heartbeat CPU 0 instructions: 37000002 cycles: 22394188 heartbeat IPC: 1.56432 cumulative IPC: 1.65221 (Simulation time: 0 hr 25 min 17 sec) 
Heartbeat CPU 0 instructions: 38000000 cycles: 22977168 heartbeat IPC: 1.71532 cumulative IPC: 1.65382 (Simulation time: 0 hr 25 min 53 sec) 
Heartbeat CPU 0 instructions: 39000001 cycles: 23645749 heartbeat IPC: 1.49571 cumulative IPC: 1.64935 (Simulation time: 0 hr 26 min 31 sec) 
Heartbeat CPU 0 instructions: 40000000 cycles: 24235590 heartbeat IPC: 1.69537 cumulative IPC: 1.65047 (Simulation time: 0 hr 27 min 7 sec) 
Heartbeat CPU 0 instructions: 41000000 cycles: 24823973 heartbeat IPC: 1.69957 cumulative IPC: 1.65163 (Simulation time: 0 hr 27 min 42 sec) 
Heartbeat CPU 0 instructions: 42000001 cycles: 25451840 heartbeat IPC: 1.5927 cumulative IPC: 1.65018 (Simulation time: 0 hr 28 min 22 sec) 
Heartbeat CPU 0 instructions: 43000003 cycles: 26057791 heartbeat IPC: 1.6503 cumulative IPC: 1.65018 (Simulation time: 0 hr 29 min 3 sec) 
Heartbeat CPU 0 instructions: 44000000 cycles: 26611313 heartbeat IPC: 1.80661 cumulative IPC: 1.65343 (Simulation time: 0 hr 29 min 42 sec) 
Heartbeat CPU 0 instructions: 45000003 cycles: 27170700 heartbeat IPC: 1.78768 cumulative IPC: 1.6562 (Simulation time: 0 hr 30 min 20 sec) 
Heartbeat CPU 0 instructions: 46000001 cycles: 27785933 heartbeat IPC: 1.6254 cumulative IPC: 1.65551 (Simulation time: 0 hr 30 min 58 sec) 
Heartbeat CPU 0 instructions: 47000000 cycles: 28359384 heartbeat IPC: 1.74383 cumulative IPC: 1.6573 (Simulation time: 0 hr 31 min 34 sec) 
Heartbeat CPU 0 instructions: 48000000 cycles: 28961371 heartbeat IPC: 1.66117 cumulative IPC: 1.65738 (Simulation time: 0 hr 32 min 13 sec) 
Heartbeat CPU 0 instructions: 49000000 cycles: 29541030 heartbeat IPC: 1.72515 cumulative IPC: 1.65871 (Simulation time: 0 hr 32 min 55 sec) 
Heartbeat CPU 0 instructions: 50000000 cycles: 30184426 heartbeat IPC: 1.55425 cumulative IPC: 1.65648 (Simulation time: 0 hr 33 min 29 sec) 

Warmup complete CPU 0 instructions: 50000004 cycles: 30184427 (Simulation time: 0 hr 33 min 29 sec) 

Heartbeat CPU 0 instructions: 51000003 cycles: 33965719 heartbeat IPC: 0.264461 cumulative IPC: 0.26446 (Simulation time: 0 hr 34 min 17 sec) 
Heartbeat CPU 0 instructions: 52000000 cycles: 37961891 heartbeat IPC: 0.250239 cumulative IPC: 0.257153 (Simulation time: 0 hr 35 min 6 sec) 
Heartbeat CPU 0 instructions: 53000000 cycles: 42498362 heartbeat IPC: 0.220436 cumulative IPC: 0.243626 (Simulation time: 0 hr 35 min 58 sec) 
Heartbeat CPU 0 instructions: 54000002 cycles: 46569211 heartbeat IPC: 0.24565 cumulative IPC: 0.244129 (Simulation time: 0 hr 36 min 45 sec) 
Heartbeat CPU 0 instructions: 55000001 cycles: 50418801 heartbeat IPC: 0.259768 cumulative IPC: 0.247104 (Simulation time: 0 hr 37 min 37 sec) 
Heartbeat CPU 0 instructions: 56000000 cycles: 54665452 heartbeat IPC: 0.235479 cumulative IPC: 0.245088 (Simulation time: 0 hr 38 min 30 sec) 
Heartbeat CPU 0 instructions: 57000001 cycles: 58664884 heartbeat IPC: 0.250036 cumulative IPC: 0.245782 (Simulation time: 0 hr 39 min 19 sec) 
Heartbeat CPU 0 instructions: 58000000 cycles: 61912477 heartbeat IPC: 0.30792 cumulative IPC: 0.252143 (Simulation time: 0 hr 40 min 11 sec) 
Heartbeat CPU 0 instructions: 59000003 cycles: 65837856 heartbeat IPC: 0.254753 cumulative IPC: 0.25243 (Simulation time: 0 hr 40 min 57 sec) 
Heartbeat CPU 0 instructions: 60000000 cycles: 70210036 heartbeat IPC: 0.228718 cumulative IPC: 0.24984 (Simulation time: 0 hr 41 min 52 sec) 
Heartbeat CPU 0 instructions: 61000001 cycles: 74610574 heartbeat IPC: 0.227245 cumulative IPC: 0.247602 (Simulation time: 0 hr 42 min 41 sec) 
Heartbeat CPU 0 instructions: 62000000 cycles: 79065103 heartbeat IPC: 0.22449 cumulative IPC: 0.245496 (Simulation time: 0 hr 43 min 31 sec) 
Heartbeat CPU 0 instructions: 63000001 cycles: 82754445 heartbeat IPC: 0.271051 cumulative IPC: 0.247289 (Simulation time: 0 hr 44 min 28 sec) 
Heartbeat CPU 0 instructions: 64000000 cycles: 86555643 heartbeat IPC: 0.263075 cumulative IPC: 0.248354 (Simulation time: 0 hr 45 min 17 sec) 
Heartbeat CPU 0 instructions: 65000001 cycles: 90002027 heartbeat IPC: 0.290159 cumulative IPC: 0.250762 (Simulation time: 0 hr 46 min 6 sec) 
Heartbeat CPU 0 instructions: 66000002 cycles: 93989840 heartbeat IPC: 0.250764 cumulative IPC: 0.250762 (Simulation time: 0 hr 46 min 49 sec) 
Heartbeat CPU 0 instructions: 67000002 cycles: 97725413 heartbeat IPC: 0.267697 cumulative IPC: 0.251699 (Simulation time: 0 hr 47 min 33 sec) 
Heartbeat CPU 0 instructions: 68000000 cycles: 101594325 heartbeat IPC: 0.25847 cumulative IPC: 0.252066 (Simulation time: 0 hr 48 min 19 sec) 
Heartbeat CPU 0 instructions: 69000000 cycles: 105628774 heartbeat IPC: 0.247865 cumulative IPC: 0.251841 (Simulation time: 0 hr 49 min 8 sec) 
Heartbeat CPU 0 instructions: 70000001 cycles: 109344608 heartbeat IPC: 0.269119 cumulative IPC: 0.252652 (Simulation time: 0 hr 49 min 51 sec) 
Heartbeat CPU 0 instructions: 71000003 cycles: 113298096 heartbeat IPC: 0.252942 cumulative IPC: 0.252666 (Simulation time: 0 hr 50 min 43 sec) 
Heartbeat CPU 0 instructions: 72000000 cycles: 117802862 heartbeat IPC: 0.221986 cumulative IPC: 0.251089 (Simulation time: 0 hr 51 min 44 sec) 
Heartbeat CPU 0 instructions: 73000002 cycles: 121821337 heartbeat IPC: 0.248851 cumulative IPC: 0.250991 (Simulation time: 0 hr 52 min 41 sec) 
Heartbeat CPU 0 instructions: 74000000 cycles: 125653807 heartbeat IPC: 0.260928 cumulative IPC: 0.251389 (Simulation time: 0 hr 53 min 41 sec) 
Heartbeat CPU 0 instructions: 75000003 cycles: 129669266 heartbeat IPC: 0.249038 cumulative IPC: 0.251295 (Simulation time: 0 hr 54 min 43 sec) 
Heartbeat CPU 0 instructions: 76000000 cycles: 133449034 heartbeat IPC: 0.264566 cumulative IPC: 0.25178 (Simulation time: 0 hr 55 min 42 sec) 
Heartbeat CPU 0 instructions: 77000002 cycles: 138065599 heartbeat IPC: 0.216612 cumulative IPC: 0.250275 (Simulation time: 0 hr 56 min 44 sec) 
Heartbeat CPU 0 instructions: 78000003 cycles: 141857488 heartbeat IPC: 0.263721 cumulative IPC: 0.250732 (Simulation time: 0 hr 57 min 39 sec) 
Heartbeat CPU 0 instructions: 79000002 cycles: 145715632 heartbeat IPC: 0.259192 cumulative IPC: 0.251014 (Simulation time: 0 hr 58 min 35 sec) 
Heartbeat CPU 0 instructions: 80000000 cycles: 149514936 heartbeat IPC: 0.263206 cumulative IPC: 0.251403 (Simulation time: 0 hr 59 min 30 sec) 
Heartbeat CPU 0 instructions: 81000002 cycles: 153593714 heartbeat IPC: 0.245172 cumulative IPC: 0.251197 (Simulation time: 1 hr 0 min 30 sec) 
Heartbeat CPU 0 instructions: 82000000 cycles: 158113170 heartbeat IPC: 0.221265 cumulative IPC: 0.250139 (Simulation time: 1 hr 1 min 32 sec) 
Heartbeat CPU 0 instructions: 83000002 cycles: 161808795 heartbeat IPC: 0.270591 cumulative IPC: 0.250713 (Simulation time: 1 hr 2 min 30 sec) 
Heartbeat CPU 0 instructions: 84000000 cycles: 165745824 heartbeat IPC: 0.253998 cumulative IPC: 0.250809 (Simulation time: 1 hr 3 min 27 sec) 
Heartbeat CPU 0 instructions: 85000000 cycles: 169473477 heartbeat IPC: 0.268265 cumulative IPC: 0.251276 (Simulation time: 1 hr 4 min 23 sec) 
Heartbeat CPU 0 instructions: 86000000 cycles: 173320041 heartbeat IPC: 0.259972 cumulative IPC: 0.25151 (Simulation time: 1 hr 5 min 19 sec) 
Heartbeat CPU 0 instructions: 87000001 cycles: 177105135 heartbeat IPC: 0.264194 cumulative IPC: 0.251837 (Simulation time: 1 hr 6 min 15 sec) 
Heartbeat CPU 0 instructions: 88000000 cycles: 180929233 heartbeat IPC: 0.261499 cumulative IPC: 0.252082 (Simulation time: 1 hr 7 min 14 sec) 
Heartbeat CPU 0 instructions: 89000003 cycles: 184466225 heartbeat IPC: 0.282727 cumulative IPC: 0.252784 (Simulation time: 1 hr 8 min 8 sec) 
Heartbeat CPU 0 instructions: 90000000 cycles: 188347979 heartbeat IPC: 0.257615 cumulative IPC: 0.252903 (Simulation time: 1 hr 9 min 5 sec) 
Heartbeat CPU 0 instructions: 91000001 cycles: 191965526 heartbeat IPC: 0.276431 cumulative IPC: 0.253429 (Simulation time: 1 hr 10 min 4 sec) 
Heartbeat CPU 0 instructions: 92000000 cycles: 196004124 heartbeat IPC: 0.24761 cumulative IPC: 0.253287 (Simulation time: 1 hr 10 min 58 sec) 
Heartbeat CPU 0 instructions: 93000001 cycles: 200372732 heartbeat IPC: 0.228906 cumulative IPC: 0.252661 (Simulation time: 1 hr 11 min 57 sec) 
Heartbeat CPU 0 instructions: 94000001 cycles: 204167695 heartbeat IPC: 0.263507 cumulative IPC: 0.252898 (Simulation time: 1 hr 12 min 55 sec) 
Heartbeat CPU 0 instructions: 95000000 cycles: 208152669 heartbeat IPC: 0.250942 cumulative IPC: 0.252854 (Simulation time: 1 hr 13 min 48 sec) 
Heartbeat CPU 0 instructions: 96000000 cycles: 212527566 heartbeat IPC: 0.228577 cumulative IPC: 0.252272 (Simulation time: 1 hr 14 min 40 sec) 
Heartbeat CPU 0 instructions: 97000000 cycles: 216125566 heartbeat IPC: 0.277932 cumulative IPC: 0.252768 (Simulation time: 1 hr 15 min 29 sec) 
Heartbeat CPU 0 instructions: 98000000 cycles: 220309248 heartbeat IPC: 0.239024 cumulative IPC: 0.252466 (Simulation time: 1 hr 16 min 24 sec) 
Heartbeat CPU 0 instructions: 99000000 cycles: 224813656 heartbeat IPC: 0.222005 cumulative IPC: 0.251761 (Simulation time: 1 hr 17 min 16 sec) 
Heartbeat CPU 0 instructions: 100000000 cycles: 228858139 heartbeat IPC: 0.24725 cumulative IPC: 0.251669 (Simulation time: 1 hr 18 min 3 sec) 
Heartbeat CPU 0 instructions: 101000000 cycles: 232767691 heartbeat IPC: 0.255784 cumulative IPC: 0.251748 (Simulation time: 1 hr 18 min 47 sec) 
Heartbeat CPU 0 instructions: 102000003 cycles: 236933784 heartbeat IPC: 0.240034 cumulative IPC: 0.251512 (Simulation time: 1 hr 19 min 33 sec) 
Heartbeat CPU 0 instructions: 103000000 cycles: 240714172 heartbeat IPC: 0.264522 cumulative IPC: 0.251746 (Simulation time: 1 hr 20 min 17 sec) 
Heartbeat CPU 0 instructions: 104000000 cycles: 244506727 heartbeat IPC: 0.263674 cumulative IPC: 0.251957 (Simulation time: 1 hr 20 min 58 sec) 
Heartbeat CPU 0 instructions: 105000003 cycles: 248561213 heartbeat IPC: 0.246641 cumulative IPC: 0.251858 (Simulation time: 1 hr 21 min 35 sec) 
Heartbeat CPU 0 instructions: 106000001 cycles: 252208940 heartbeat IPC: 0.274143 cumulative IPC: 0.252224 (Simulation time: 1 hr 22 min 10 sec) 
Heartbeat CPU 0 instructions: 107000000 cycles: 256408969 heartbeat IPC: 0.238093 cumulative IPC: 0.251962 (Simulation time: 1 hr 22 min 49 sec) 
Heartbeat CPU 0 instructions: 108000000 cycles: 260406150 heartbeat IPC: 0.250176 cumulative IPC: 0.251931 (Simulation time: 1 hr 23 min 29 sec) 
Heartbeat CPU 0 instructions: 109000000 cycles: 264867621 heartbeat IPC: 0.224141 cumulative IPC: 0.251403 (Simulation time: 1 hr 24 min 10 sec) 
Heartbeat CPU 0 instructions: 110000000 cycles: 268493482 heartbeat IPC: 0.275797 cumulative IPC: 0.251774 (Simulation time: 1 hr 24 min 48 sec) 
Heartbeat CPU 0 instructions: 111000002 cycles: 272939764 heartbeat IPC: 0.224907 cumulative IPC: 0.251282 (Simulation time: 1 hr 25 min 23 sec) 
Heartbeat CPU 0 instructions: 112000000 cycles: 276846516 heartbeat IPC: 0.255967 cumulative IPC: 0.251356 (Simulation time: 1 hr 25 min 57 sec) 
Heartbeat CPU 0 instructions: 113000002 cycles: 280435959 heartbeat IPC: 0.278595 cumulative IPC: 0.251747 (Simulation time: 1 hr 26 min 28 sec) 
Heartbeat CPU 0 instructions: 114000000 cycles: 283890671 heartbeat IPC: 0.289459 cumulative IPC: 0.25226 (Simulation time: 1 hr 26 min 59 sec) 
Heartbeat CPU 0 instructions: 115000000 cycles: 287620221 heartbeat IPC: 0.268129 cumulative IPC: 0.25249 (Simulation time: 1 hr 27 min 32 sec) 
Heartbeat CPU 0 instructions: 116000000 cycles: 291801613 heartbeat IPC: 0.239155 cumulative IPC: 0.252277 (Simulation time: 1 hr 28 min 6 sec) 
Heartbeat CPU 0 instructions: 117000000 cycles: 295566548 heartbeat IPC: 0.265609 cumulative IPC: 0.252466 (Simulation time: 1 hr 28 min 36 sec) 
Heartbeat CPU 0 instructions: 118000000 cycles: 299246596 heartbeat IPC: 0.271736 cumulative IPC: 0.25273 (Simulation time: 1 hr 29 min 5 sec) 
Heartbeat CPU 0 instructions: 119000001 cycles: 303024759 heartbeat IPC: 0.264679 cumulative IPC: 0.252895 (Simulation time: 1 hr 29 min 33 sec) 
Heartbeat CPU 0 instructions: 120000000 cycles: 306668724 heartbeat IPC: 0.274426 cumulative IPC: 0.253179 (Simulation time: 1 hr 29 min 58 sec) 
Heartbeat CPU 0 instructions: 121000001 cycles: 310156078 heartbeat IPC: 0.286751 cumulative IPC: 0.253597 (Simulation time: 1 hr 30 min 23 sec) 
Heartbeat CPU 0 instructions: 122000001 cycles: 313783066 heartbeat IPC: 0.275711 cumulative IPC: 0.25388 (Simulation time: 1 hr 30 min 48 sec) 
Heartbeat CPU 0 instructions: 123000003 cycles: 317394950 heartbeat IPC: 0.276864 cumulative IPC: 0.254169 (Simulation time: 1 hr 31 min 10 sec) 
Heartbeat CPU 0 instructions: 124000000 cycles: 321063092 heartbeat IPC: 0.272617 cumulative IPC: 0.254402 (Simulation time: 1 hr 31 min 33 sec) 
Heartbeat CPU 0 instructions: 125000001 cycles: 324690058 heartbeat IPC: 0.275713 cumulative IPC: 0.254664 (Simulation time: 1 hr 31 min 55 sec) 
Heartbeat CPU 0 instructions: 126000003 cycles: 328240514 heartbeat IPC: 0.281655 cumulative IPC: 0.254986 (Simulation time: 1 hr 32 min 17 sec) 
Heartbeat CPU 0 instructions: 127000001 cycles: 331757878 heartbeat IPC: 0.284303 cumulative IPC: 0.255327 (Simulation time: 1 hr 32 min 37 sec) 
Heartbeat CPU 0 instructions: 128000000 cycles: 335316290 heartbeat IPC: 0.281024 cumulative IPC: 0.255627 (Simulation time: 1 hr 32 min 57 sec) 
Heartbeat CPU 0 instructions: 129000001 cycles: 338605761 heartbeat IPC: 0.304001 cumulative IPC: 0.256143 (Simulation time: 1 hr 33 min 16 sec) 
Heartbeat CPU 0 instructions: 130000000 cycles: 342216790 heartbeat IPC: 0.276929 cumulative IPC: 0.256384 (Simulation time: 1 hr 33 min 36 sec) 
Heartbeat CPU 0 instructions: 131000000 cycles: 345901134 heartbeat IPC: 0.271419 cumulative IPC: 0.256559 (Simulation time: 1 hr 33 min 54 sec) 
Heartbeat CPU 0 instructions: 132000000 cycles: 349731733 heartbeat IPC: 0.261056 cumulative IPC: 0.256613 (Simulation time: 1 hr 34 min 11 sec) 
Heartbeat CPU 0 instructions: 133000003 cycles: 353577958 heartbeat IPC: 0.259996 cumulative IPC: 0.256653 (Simulation time: 1 hr 34 min 27 sec) 
Heartbeat CPU 0 instructions: 134000000 cycles: 357588489 heartbeat IPC: 0.249343 cumulative IPC: 0.256564 (Simulation time: 1 hr 34 min 42 sec) 
Heartbeat CPU 0 instructions: 135000001 cycles: 361415364 heartbeat IPC: 0.26131 cumulative IPC: 0.256619 (Simulation time: 1 hr 34 min 54 sec) 
Heartbeat CPU 0 instructions: 136000000 cycles: 365201576 heartbeat IPC: 0.264116 cumulative IPC: 0.256703 (Simulation time: 1 hr 35 min 6 sec) 
Heartbeat CPU 0 instructions: 137000000 cycles: 369006515 heartbeat IPC: 0.262816 cumulative IPC: 0.256772 (Simulation time: 1 hr 35 min 19 sec) 
Heartbeat CPU 0 instructions: 138000000 cycles: 372810811 heartbeat IPC: 0.262861 cumulative IPC: 0.25684 (Simulation time: 1 hr 35 min 30 sec) 
Heartbeat CPU 0 instructions: 139000000 cycles: 376886359 heartbeat IPC: 0.245366 cumulative IPC: 0.256705 (Simulation time: 1 hr 35 min 40 sec) 
Heartbeat CPU 0 instructions: 140000000 cycles: 380459528 heartbeat IPC: 0.279864 cumulative IPC: 0.256941 (Simulation time: 1 hr 35 min 50 sec) 
Heartbeat CPU 0 instructions: 141000001 cycles: 384751692 heartbeat IPC: 0.232983 cumulative IPC: 0.256651 (Simulation time: 1 hr 35 min 59 sec) 
Heartbeat CPU 0 instructions: 142000000 cycles: 388776649 heartbeat IPC: 0.24845 cumulative IPC: 0.256559 (Simulation time: 1 hr 36 min 7 sec) 
Heartbeat CPU 0 instructions: 143000000 cycles: 392923894 heartbeat IPC: 0.241124 cumulative IPC: 0.256382 (Simulation time: 1 hr 36 min 13 sec) 
Heartbeat CPU 0 instructions: 144000000 cycles: 396972449 heartbeat IPC: 0.247002 cumulative IPC: 0.256279 (Simulation time: 1 hr 36 min 21 sec) 
Heartbeat CPU 0 instructions: 145000001 cycles: 400330039 heartbeat IPC: 0.297833 cumulative IPC: 0.256656 (Simulation time: 1 hr 36 min 27 sec) 
Heartbeat CPU 0 instructions: 146000001 cycles: 404532781 heartbeat IPC: 0.23794 cumulative IPC: 0.256446 (Simulation time: 1 hr 36 min 34 sec) 
Heartbeat CPU 0 instructions: 147000002 cycles: 408717984 heartbeat IPC: 0.238937 cumulative IPC: 0.256252 (Simulation time: 1 hr 36 min 40 sec) 
Heartbeat CPU 0 instructions: 148000000 cycles: 412501999 heartbeat IPC: 0.264269 cumulative IPC: 0.256331 (Simulation time: 1 hr 36 min 46 sec) 
Heartbeat CPU 0 instructions: 149000000 cycles: 416259463 heartbeat IPC: 0.266137 cumulative IPC: 0.256427 (Simulation time: 1 hr 36 min 51 sec) 
Heartbeat CPU 0 instructions: 150000000 cycles: 419447624 heartbeat IPC: 0.31366 cumulative IPC: 0.256896 (Simulation time: 1 hr 36 min 57 sec) 
Finished CPU 0 instructions: 100000000 cycles: 389263198 cummulative IPC: 0.256896 (Simulation time: 1 hr 36 min 57 sec) 

ChampSim completed all CPUs

Region of Interest Statistics

CPU 0 cummulative IPC: 0.256896 instructions: 100000000 cycles: 389263198
LLC TOTAL     ACCESS:    4288112  HIT:    1636060  MISS:    2652052
LLC LOAD      ACCESS:    1519256  HIT:     470899  MISS:    1048357
LLC RFO       ACCESS:     246554  HIT:     101550  MISS:     145004
LLC PREFETCH  ACCESS:    1524747  HIT:     310609  MISS:    1214138
LLC WRITEBACK ACCESS:     997555  HIT:     753002  MISS:     244553
OPTgen accesses: 39553
OPTgen hits: 22441
OPTgen hit rate: 56.7365


