
*** ChampSim Multicore Out-of-Order Simulator ***

Warmup Instructions: 50000000
Simulation Instructions: 100000000
Configuration: 2
Number of CPUs: 1
LLC sets: 2048
LLC ways: 16
Off-chip DRAM Channels: 1 Width: 64-bit Data Rate: 1600 MT/s

CPU 0 runs /datasets/cs240c-wi22-a00-public/data/Assignment2-gz/astar_313B.trace.gz
CPU 0 L1D next line prefetcher
CPU 0 L2C IP-based stride prefetcher
Initialize Hawkeye state
Heartbeat CPU 0 instructions: 1000001 cycles: 675680 heartbeat IPC: 1.47999 cumulative IPC: 1.47999 (Simulation time: 0 hr 0 min 53 sec) 
Heartbeat CPU 0 instructions: 2000003 cycles: 1263000 heartbeat IPC: 1.70265 cumulative IPC: 1.58353 (Simulation time: 0 hr 1 min 48 sec) 
Heartbeat CPU 0 instructions: 3000003 cycles: 1936938 heartbeat IPC: 1.48382 cumulative IPC: 1.54884 (Simulation time: 0 hr 2 min 41 sec) 
Heartbeat CPU 0 instructions: 4000000 cycles: 2610272 heartbeat IPC: 1.48514 cumulative IPC: 1.53241 (Simulation time: 0 hr 3 min 34 sec) 
Heartbeat CPU 0 instructions: 5000002 cycles: 3283856 heartbeat IPC: 1.4846 cumulative IPC: 1.5226 (Simulation time: 0 hr 4 min 23 sec) 
Heartbeat CPU 0 instructions: 6000001 cycles: 3871151 heartbeat IPC: 1.70272 cumulative IPC: 1.54993 (Simulation time: 0 hr 5 min 12 sec) 
Heartbeat CPU 0 instructions: 7000001 cycles: 4439948 heartbeat IPC: 1.7581 cumulative IPC: 1.5766 (Simulation time: 0 hr 5 min 55 sec) 
Heartbeat CPU 0 instructions: 8000000 cycles: 4991809 heartbeat IPC: 1.81205 cumulative IPC: 1.60263 (Simulation time: 0 hr 6 min 41 sec) 
Heartbeat CPU 0 instructions: 9000001 cycles: 5553506 heartbeat IPC: 1.78032 cumulative IPC: 1.6206 (Simulation time: 0 hr 7 min 24 sec) 
Heartbeat CPU 0 instructions: 10000002 cycles: 6228277 heartbeat IPC: 1.48199 cumulative IPC: 1.60558 (Simulation time: 0 hr 8 min 14 sec) 
Heartbeat CPU 0 instructions: 11000000 cycles: 6903824 heartbeat IPC: 1.48028 cumulative IPC: 1.59332 (Simulation time: 0 hr 8 min 55 sec) 
Heartbeat CPU 0 instructions: 12000000 cycles: 7573469 heartbeat IPC: 1.49333 cumulative IPC: 1.58448 (Simulation time: 0 hr 9 min 35 sec) 
Heartbeat CPU 0 instructions: 13000003 cycles: 8166338 heartbeat IPC: 1.68672 cumulative IPC: 1.5919 (Simulation time: 0 hr 10 min 22 sec) 
Heartbeat CPU 0 instructions: 14000002 cycles: 8838353 heartbeat IPC: 1.48806 cumulative IPC: 1.58401 (Simulation time: 0 hr 11 min 8 sec) 
Heartbeat CPU 0 instructions: 15000000 cycles: 9512267 heartbeat IPC: 1.48387 cumulative IPC: 1.57691 (Simulation time: 0 hr 11 min 55 sec) 
Heartbeat CPU 0 instructions: 16000000 cycles: 10186118 heartbeat IPC: 1.48401 cumulative IPC: 1.57077 (Simulation time: 0 hr 12 min 42 sec) 
Heartbeat CPU 0 instructions: 17000001 cycles: 10859728 heartbeat IPC: 1.48454 cumulative IPC: 1.56542 (Simulation time: 0 hr 13 min 28 sec) 
Heartbeat CPU 0 instructions: 18000000 cycles: 11445295 heartbeat IPC: 1.70774 cumulative IPC: 1.5727 (Simulation time: 0 hr 14 min 8 sec) 
Heartbeat CPU 0 instructions: 19000000 cycles: 12119161 heartbeat IPC: 1.48397 cumulative IPC: 1.56777 (Simulation time: 0 hr 14 min 54 sec) 
Heartbeat CPU 0 instructions: 20000000 cycles: 12792910 heartbeat IPC: 1.48423 cumulative IPC: 1.56337 (Simulation time: 0 hr 15 min 33 sec) 
Heartbeat CPU 0 instructions: 21000001 cycles: 13419391 heartbeat IPC: 1.59622 cumulative IPC: 1.5649 (Simulation time: 0 hr 16 min 11 sec) 
Heartbeat CPU 0 instructions: 22000001 cycles: 14054566 heartbeat IPC: 1.57437 cumulative IPC: 1.56533 (Simulation time: 0 hr 16 min 51 sec) 
Heartbeat CPU 0 instructions: 23000001 cycles: 14727321 heartbeat IPC: 1.48643 cumulative IPC: 1.56172 (Simulation time: 0 hr 17 min 32 sec) 
Heartbeat CPU 0 instructions: 24000000 cycles: 15381859 heartbeat IPC: 1.52779 cumulative IPC: 1.56028 (Simulation time: 0 hr 18 min 16 sec) 
Heartbeat CPU 0 instructions: 25000001 cycles: 15987426 heartbeat IPC: 1.65135 cumulative IPC: 1.56373 (Simulation time: 0 hr 19 min 6 sec) 
Heartbeat CPU 0 instructions: 26000002 cycles: 16663904 heartbeat IPC: 1.47825 cumulative IPC: 1.56026 (Simulation time: 0 hr 19 min 49 sec) 
Heartbeat CPU 0 instructions: 27000002 cycles: 17254728 heartbeat IPC: 1.69255 cumulative IPC: 1.56479 (Simulation time: 0 hr 20 min 31 sec) 
Heartbeat CPU 0 instructions: 28000000 cycles: 17929178 heartbeat IPC: 1.48269 cumulative IPC: 1.5617 (Simulation time: 0 hr 21 min 13 sec) 
Heartbeat CPU 0 instructions: 29000001 cycles: 18517152 heartbeat IPC: 1.70076 cumulative IPC: 1.56612 (Simulation time: 0 hr 21 min 56 sec) 
Heartbeat CPU 0 instructions: 30000002 cycles: 19190565 heartbeat IPC: 1.48497 cumulative IPC: 1.56327 (Simulation time: 0 hr 22 min 38 sec) 
Heartbeat CPU 0 instructions: 31000002 cycles: 19865262 heartbeat IPC: 1.48215 cumulative IPC: 1.56051 (Simulation time: 0 hr 23 min 15 sec) 
Heartbeat CPU 0 instructions: 32000000 cycles: 20540144 heartbeat IPC: 1.48174 cumulative IPC: 1.55792 (Simulation time: 0 hr 23 min 59 sec) 
Heartbeat CPU 0 instructions: 33000003 cycles: 21215123 heartbeat IPC: 1.48153 cumulative IPC: 1.55549 (Simulation time: 0 hr 24 min 35 sec) 
Heartbeat CPU 0 instructions: 34000000 cycles: 21801182 heartbeat IPC: 1.70631 cumulative IPC: 1.55955 (Simulation time: 0 hr 25 min 15 sec) 
Heartbeat CPU 0 instructions: 35000000 cycles: 22475045 heartbeat IPC: 1.48398 cumulative IPC: 1.55728 (Simulation time: 0 hr 25 min 55 sec) 
Heartbeat CPU 0 instructions: 36000000 cycles: 23148656 heartbeat IPC: 1.48454 cumulative IPC: 1.55517 (Simulation time: 0 hr 26 min 35 sec) 
Heartbeat CPU 0 instructions: 37000002 cycles: 23736230 heartbeat IPC: 1.70192 cumulative IPC: 1.5588 (Simulation time: 0 hr 27 min 16 sec) 
Heartbeat CPU 0 instructions: 38000000 cycles: 24409385 heartbeat IPC: 1.48554 cumulative IPC: 1.55678 (Simulation time: 0 hr 27 min 55 sec) 
Heartbeat CPU 0 instructions: 39000003 cycles: 24997998 heartbeat IPC: 1.69891 cumulative IPC: 1.56013 (Simulation time: 0 hr 28 min 32 sec) 
Heartbeat CPU 0 instructions: 40000000 cycles: 25586705 heartbeat IPC: 1.69863 cumulative IPC: 1.56331 (Simulation time: 0 hr 29 min 14 sec) 
Heartbeat CPU 0 instructions: 41000001 cycles: 26261323 heartbeat IPC: 1.48232 cumulative IPC: 1.56123 (Simulation time: 0 hr 29 min 52 sec) 
Heartbeat CPU 0 instructions: 42000003 cycles: 26938630 heartbeat IPC: 1.47644 cumulative IPC: 1.5591 (Simulation time: 0 hr 30 min 31 sec) 
Heartbeat CPU 0 instructions: 43000003 cycles: 27531605 heartbeat IPC: 1.68641 cumulative IPC: 1.56184 (Simulation time: 0 hr 31 min 10 sec) 
Heartbeat CPU 0 instructions: 44000000 cycles: 28199688 heartbeat IPC: 1.49682 cumulative IPC: 1.5603 (Simulation time: 0 hr 31 min 48 sec) 
Heartbeat CPU 0 instructions: 45000002 cycles: 28872138 heartbeat IPC: 1.4871 cumulative IPC: 1.5586 (Simulation time: 0 hr 32 min 27 sec) 
Heartbeat CPU 0 instructions: 46000002 cycles: 29545087 heartbeat IPC: 1.486 cumulative IPC: 1.55694 (Simulation time: 0 hr 33 min 9 sec) 
Heartbeat CPU 0 instructions: 47000002 cycles: 30216743 heartbeat IPC: 1.48886 cumulative IPC: 1.55543 (Simulation time: 0 hr 33 min 49 sec) 
Heartbeat CPU 0 instructions: 48000000 cycles: 30805469 heartbeat IPC: 1.69858 cumulative IPC: 1.55816 (Simulation time: 0 hr 34 min 28 sec) 
Heartbeat CPU 0 instructions: 49000000 cycles: 31477762 heartbeat IPC: 1.48745 cumulative IPC: 1.55665 (Simulation time: 0 hr 35 min 6 sec) 
Heartbeat CPU 0 instructions: 50000000 cycles: 32150144 heartbeat IPC: 1.48725 cumulative IPC: 1.5552 (Simulation time: 0 hr 35 min 44 sec) 

Warmup complete CPU 0 instructions: 50000001 cycles: 32150145 (Simulation time: 0 hr 35 min 44 sec) 

Heartbeat CPU 0 instructions: 51000000 cycles: 38818076 heartbeat IPC: 0.149972 cumulative IPC: 0.149971 (Simulation time: 0 hr 36 min 34 sec) 
Heartbeat CPU 0 instructions: 52000000 cycles: 47170768 heartbeat IPC: 0.119722 cumulative IPC: 0.13315 (Simulation time: 0 hr 37 min 22 sec) 
Heartbeat CPU 0 instructions: 53000000 cycles: 53878841 heartbeat IPC: 0.149074 cumulative IPC: 0.138066 (Simulation time: 0 hr 38 min 6 sec) 
Heartbeat CPU 0 instructions: 54000000 cycles: 61609609 heartbeat IPC: 0.129353 cumulative IPC: 0.13578 (Simulation time: 0 hr 38 min 47 sec) 
Heartbeat CPU 0 instructions: 55000001 cycles: 69840588 heartbeat IPC: 0.121492 cumulative IPC: 0.13266 (Simulation time: 0 hr 39 min 31 sec) 
Heartbeat CPU 0 instructions: 56000000 cycles: 79645752 heartbeat IPC: 0.101987 cumulative IPC: 0.126327 (Simulation time: 0 hr 40 min 23 sec) 
Heartbeat CPU 0 instructions: 57000000 cycles: 85809932 heartbeat IPC: 0.162228 cumulative IPC: 0.130451 (Simulation time: 0 hr 41 min 4 sec) 
Heartbeat CPU 0 instructions: 58000001 cycles: 92135091 heartbeat IPC: 0.158099 cumulative IPC: 0.133367 (Simulation time: 0 hr 41 min 47 sec) 
Heartbeat CPU 0 instructions: 59000002 cycles: 100267576 heartbeat IPC: 0.122964 cumulative IPC: 0.132125 (Simulation time: 0 hr 42 min 34 sec) 
Heartbeat CPU 0 instructions: 60000000 cycles: 107769810 heartbeat IPC: 0.133293 cumulative IPC: 0.132241 (Simulation time: 0 hr 43 min 21 sec) 
Heartbeat CPU 0 instructions: 61000001 cycles: 114426761 heartbeat IPC: 0.150219 cumulative IPC: 0.133695 (Simulation time: 0 hr 44 min 4 sec) 
Heartbeat CPU 0 instructions: 62000001 cycles: 121427568 heartbeat IPC: 0.142841 cumulative IPC: 0.134412 (Simulation time: 0 hr 44 min 48 sec) 
Heartbeat CPU 0 instructions: 63000000 cycles: 128593922 heartbeat IPC: 0.139541 cumulative IPC: 0.134794 (Simulation time: 0 hr 45 min 35 sec) 
Heartbeat CPU 0 instructions: 64000000 cycles: 137727451 heartbeat IPC: 0.109487 cumulative IPC: 0.132604 (Simulation time: 0 hr 46 min 19 sec) 
Heartbeat CPU 0 instructions: 65000000 cycles: 144231495 heartbeat IPC: 0.15375 cumulative IPC: 0.133831 (Simulation time: 0 hr 47 min 1 sec) 
Heartbeat CPU 0 instructions: 66000001 cycles: 150866538 heartbeat IPC: 0.150715 cumulative IPC: 0.134775 (Simulation time: 0 hr 47 min 42 sec) 
Heartbeat CPU 0 instructions: 67000000 cycles: 158086675 heartbeat IPC: 0.138501 cumulative IPC: 0.134989 (Simulation time: 0 hr 48 min 23 sec) 
Heartbeat CPU 0 instructions: 68000000 cycles: 165549325 heartbeat IPC: 0.134001 cumulative IPC: 0.134933 (Simulation time: 0 hr 49 min 5 sec) 
Heartbeat CPU 0 instructions: 69000000 cycles: 177368556 heartbeat IPC: 0.0846079 cumulative IPC: 0.130837 (Simulation time: 0 hr 49 min 57 sec) 
Heartbeat CPU 0 instructions: 70000000 cycles: 184061031 heartbeat IPC: 0.149422 cumulative IPC: 0.131656 (Simulation time: 0 hr 50 min 38 sec) 
Heartbeat CPU 0 instructions: 71000002 cycles: 190761399 heartbeat IPC: 0.149246 cumulative IPC: 0.132399 (Simulation time: 0 hr 51 min 33 sec) 
Heartbeat CPU 0 instructions: 72000000 cycles: 197819055 heartbeat IPC: 0.14169 cumulative IPC: 0.132795 (Simulation time: 0 hr 52 min 28 sec) 
Heartbeat CPU 0 instructions: 73000003 cycles: 205184477 heartbeat IPC: 0.13577 cumulative IPC: 0.132922 (Simulation time: 0 hr 53 min 23 sec) 
Heartbeat CPU 0 instructions: 74000003 cycles: 214335535 heartbeat IPC: 0.109277 cumulative IPC: 0.131734 (Simulation time: 0 hr 54 min 21 sec) 
Heartbeat CPU 0 instructions: 75000000 cycles: 221497764 heartbeat IPC: 0.139621 cumulative IPC: 0.132032 (Simulation time: 0 hr 55 min 20 sec) 
Heartbeat CPU 0 instructions: 76000000 cycles: 227728840 heartbeat IPC: 0.160486 cumulative IPC: 0.132939 (Simulation time: 0 hr 56 min 15 sec) 
Heartbeat CPU 0 instructions: 77000000 cycles: 233901536 heartbeat IPC: 0.162004 cumulative IPC: 0.133828 (Simulation time: 0 hr 57 min 11 sec) 
Heartbeat CPU 0 instructions: 78000001 cycles: 239942899 heartbeat IPC: 0.165526 cumulative IPC: 0.13475 (Simulation time: 0 hr 58 min 2 sec) 
Heartbeat CPU 0 instructions: 79000000 cycles: 248698035 heartbeat IPC: 0.114219 cumulative IPC: 0.13392 (Simulation time: 0 hr 59 min 0 sec) 
Heartbeat CPU 0 instructions: 80000000 cycles: 254472542 heartbeat IPC: 0.173175 cumulative IPC: 0.134939 (Simulation time: 0 hr 59 min 50 sec) 
Heartbeat CPU 0 instructions: 81000003 cycles: 261714223 heartbeat IPC: 0.13809 cumulative IPC: 0.135039 (Simulation time: 1 hr 0 min 40 sec) 
Heartbeat CPU 0 instructions: 82000001 cycles: 269534936 heartbeat IPC: 0.127865 cumulative IPC: 0.134802 (Simulation time: 1 hr 1 min 34 sec) 
Heartbeat CPU 0 instructions: 83000002 cycles: 275973601 heartbeat IPC: 0.155312 cumulative IPC: 0.135344 (Simulation time: 1 hr 2 min 23 sec) 
Heartbeat CPU 0 instructions: 84000000 cycles: 282556235 heartbeat IPC: 0.151915 cumulative IPC: 0.135779 (Simulation time: 1 hr 3 min 15 sec) 
Heartbeat CPU 0 instructions: 85000002 cycles: 289401115 heartbeat IPC: 0.146095 cumulative IPC: 0.136054 (Simulation time: 1 hr 4 min 5 sec) 
Heartbeat CPU 0 instructions: 86000001 cycles: 297949965 heartbeat IPC: 0.116975 cumulative IPC: 0.13544 (Simulation time: 1 hr 5 min 6 sec) 
Heartbeat CPU 0 instructions: 87000000 cycles: 303711507 heartbeat IPC: 0.173564 cumulative IPC: 0.136249 (Simulation time: 1 hr 5 min 58 sec) 
Heartbeat CPU 0 instructions: 88000000 cycles: 309632720 heartbeat IPC: 0.168884 cumulative IPC: 0.136946 (Simulation time: 1 hr 6 min 49 sec) 
Heartbeat CPU 0 instructions: 89000002 cycles: 315678445 heartbeat IPC: 0.165406 cumulative IPC: 0.137552 (Simulation time: 1 hr 7 min 39 sec) 
Heartbeat CPU 0 instructions: 90000002 cycles: 321896205 heartbeat IPC: 0.16083 cumulative IPC: 0.138052 (Simulation time: 1 hr 8 min 31 sec) 
Heartbeat CPU 0 instructions: 91000001 cycles: 331018671 heartbeat IPC: 0.109619 cumulative IPC: 0.137184 (Simulation time: 1 hr 9 min 33 sec) 
Heartbeat CPU 0 instructions: 92000000 cycles: 338023170 heartbeat IPC: 0.142765 cumulative IPC: 0.137312 (Simulation time: 1 hr 10 min 23 sec) 
Heartbeat CPU 0 instructions: 93000003 cycles: 345268997 heartbeat IPC: 0.138011 cumulative IPC: 0.137328 (Simulation time: 1 hr 11 min 15 sec) 
Heartbeat CPU 0 instructions: 94000000 cycles: 353026694 heartbeat IPC: 0.128904 cumulative IPC: 0.137124 (Simulation time: 1 hr 12 min 9 sec) 
Heartbeat CPU 0 instructions: 95000000 cycles: 359560200 heartbeat IPC: 0.153057 cumulative IPC: 0.137442 (Simulation time: 1 hr 12 min 59 sec) 
Heartbeat CPU 0 instructions: 96000000 cycles: 368728584 heartbeat IPC: 0.10907 cumulative IPC: 0.136669 (Simulation time: 1 hr 13 min 54 sec) 
Heartbeat CPU 0 instructions: 97000000 cycles: 375701570 heartbeat IPC: 0.143411 cumulative IPC: 0.136806 (Simulation time: 1 hr 14 min 41 sec) 
Heartbeat CPU 0 instructions: 98000003 cycles: 383376558 heartbeat IPC: 0.130294 cumulative IPC: 0.136664 (Simulation time: 1 hr 15 min 29 sec) 
Heartbeat CPU 0 instructions: 99000001 cycles: 391328661 heartbeat IPC: 0.125753 cumulative IPC: 0.136422 (Simulation time: 1 hr 16 min 18 sec) 
Heartbeat CPU 0 instructions: 100000000 cycles: 398763399 heartbeat IPC: 0.134504 cumulative IPC: 0.136384 (Simulation time: 1 hr 17 min 3 sec) 
Heartbeat CPU 0 instructions: 101000000 cycles: 407994580 heartbeat IPC: 0.108328 cumulative IPC: 0.135694 (Simulation time: 1 hr 17 min 56 sec) 
Heartbeat CPU 0 instructions: 102000001 cycles: 414364724 heartbeat IPC: 0.156982 cumulative IPC: 0.136049 (Simulation time: 1 hr 18 min 37 sec) 
Heartbeat CPU 0 instructions: 103000000 cycles: 420689602 heartbeat IPC: 0.158106 cumulative IPC: 0.136408 (Simulation time: 1 hr 19 min 16 sec) 
Heartbeat CPU 0 instructions: 104000000 cycles: 427042049 heartbeat IPC: 0.15742 cumulative IPC: 0.136746 (Simulation time: 1 hr 19 min 55 sec) 
Heartbeat CPU 0 instructions: 105000000 cycles: 433183491 heartbeat IPC: 0.162828 cumulative IPC: 0.137146 (Simulation time: 1 hr 20 min 33 sec) 
Heartbeat CPU 0 instructions: 106000000 cycles: 442130754 heartbeat IPC: 0.111766 cumulative IPC: 0.136592 (Simulation time: 1 hr 21 min 12 sec) 
Heartbeat CPU 0 instructions: 107000002 cycles: 448463398 heartbeat IPC: 0.157912 cumulative IPC: 0.136916 (Simulation time: 1 hr 21 min 45 sec) 
Heartbeat CPU 0 instructions: 108000000 cycles: 457415418 heartbeat IPC: 0.111706 cumulative IPC: 0.136385 (Simulation time: 1 hr 22 min 21 sec) 
Heartbeat CPU 0 instructions: 109000003 cycles: 463610369 heartbeat IPC: 0.161422 cumulative IPC: 0.136745 (Simulation time: 1 hr 22 min 55 sec) 
Heartbeat CPU 0 instructions: 110000003 cycles: 469478485 heartbeat IPC: 0.170412 cumulative IPC: 0.137197 (Simulation time: 1 hr 23 min 28 sec) 
Heartbeat CPU 0 instructions: 111000001 cycles: 475491655 heartbeat IPC: 0.166301 cumulative IPC: 0.137591 (Simulation time: 1 hr 24 min 2 sec) 
Heartbeat CPU 0 instructions: 112000000 cycles: 483743568 heartbeat IPC: 0.121184 cumulative IPC: 0.137292 (Simulation time: 1 hr 24 min 38 sec) 
Heartbeat CPU 0 instructions: 113000000 cycles: 491010615 heartbeat IPC: 0.137607 cumulative IPC: 0.137297 (Simulation time: 1 hr 25 min 12 sec) 
Heartbeat CPU 0 instructions: 114000003 cycles: 498721353 heartbeat IPC: 0.12969 cumulative IPC: 0.137171 (Simulation time: 1 hr 25 min 43 sec) 
Heartbeat CPU 0 instructions: 115000001 cycles: 507000966 heartbeat IPC: 0.120778 cumulative IPC: 0.136885 (Simulation time: 1 hr 26 min 17 sec) 
Heartbeat CPU 0 instructions: 116000000 cycles: 513727661 heartbeat IPC: 0.148661 cumulative IPC: 0.13705 (Simulation time: 1 hr 26 min 48 sec) 
Heartbeat CPU 0 instructions: 117000001 cycles: 520266002 heartbeat IPC: 0.152944 cumulative IPC: 0.137262 (Simulation time: 1 hr 27 min 18 sec) 
Heartbeat CPU 0 instructions: 118000003 cycles: 529281511 heartbeat IPC: 0.11092 cumulative IPC: 0.136785 (Simulation time: 1 hr 27 min 53 sec) 
Heartbeat CPU 0 instructions: 119000000 cycles: 535738538 heartbeat IPC: 0.15487 cumulative IPC: 0.137017 (Simulation time: 1 hr 28 min 20 sec) 
Heartbeat CPU 0 instructions: 120000000 cycles: 542431936 heartbeat IPC: 0.149401 cumulative IPC: 0.137179 (Simulation time: 1 hr 28 min 48 sec) 
Heartbeat CPU 0 instructions: 121000001 cycles: 549033787 heartbeat IPC: 0.151473 cumulative IPC: 0.137362 (Simulation time: 1 hr 29 min 16 sec) 
Heartbeat CPU 0 instructions: 122000001 cycles: 555550533 heartbeat IPC: 0.153451 cumulative IPC: 0.137562 (Simulation time: 1 hr 29 min 41 sec) 
Heartbeat CPU 0 instructions: 123000001 cycles: 564641347 heartbeat IPC: 0.110001 cumulative IPC: 0.137091 (Simulation time: 1 hr 30 min 9 sec) 
Heartbeat CPU 0 instructions: 124000000 cycles: 571102251 heartbeat IPC: 0.154777 cumulative IPC: 0.137303 (Simulation time: 1 hr 30 min 34 sec) 
Heartbeat CPU 0 instructions: 125000000 cycles: 577686961 heartbeat IPC: 0.151867 cumulative IPC: 0.137479 (Simulation time: 1 hr 30 min 55 sec) 
Heartbeat CPU 0 instructions: 126000003 cycles: 584700972 heartbeat IPC: 0.142572 cumulative IPC: 0.137544 (Simulation time: 1 hr 31 min 16 sec) 
Heartbeat CPU 0 instructions: 127000003 cycles: 594072733 heartbeat IPC: 0.106704 cumulative IPC: 0.13703 (Simulation time: 1 hr 31 min 41 sec) 
Heartbeat CPU 0 instructions: 128000000 cycles: 600385675 heartbeat IPC: 0.158404 cumulative IPC: 0.137267 (Simulation time: 1 hr 32 min 1 sec) 
Heartbeat CPU 0 instructions: 129000001 cycles: 609369742 heartbeat IPC: 0.111308 cumulative IPC: 0.136863 (Simulation time: 1 hr 32 min 24 sec) 
Heartbeat CPU 0 instructions: 130000002 cycles: 615666757 heartbeat IPC: 0.158806 cumulative IPC: 0.1371 (Simulation time: 1 hr 32 min 43 sec) 
Heartbeat CPU 0 instructions: 131000003 cycles: 621705038 heartbeat IPC: 0.16561 cumulative IPC: 0.137392 (Simulation time: 1 hr 33 min 1 sec) 
Heartbeat CPU 0 instructions: 132000000 cycles: 632923579 heartbeat IPC: 0.0891379 cumulative IPC: 0.136491 (Simulation time: 1 hr 33 min 23 sec) 
Heartbeat CPU 0 instructions: 133000002 cycles: 641931312 heartbeat IPC: 0.111016 cumulative IPC: 0.136114 (Simulation time: 1 hr 33 min 45 sec) 
Heartbeat CPU 0 instructions: 134000000 cycles: 647995141 heartbeat IPC: 0.164912 cumulative IPC: 0.136398 (Simulation time: 1 hr 34 min 1 sec) 
Heartbeat CPU 0 instructions: 135000002 cycles: 655501715 heartbeat IPC: 0.133217 cumulative IPC: 0.13636 (Simulation time: 1 hr 34 min 16 sec) 
Heartbeat CPU 0 instructions: 136000000 cycles: 664610336 heartbeat IPC: 0.109786 cumulative IPC: 0.135977 (Simulation time: 1 hr 34 min 32 sec) 
Heartbeat CPU 0 instructions: 137000001 cycles: 672683681 heartbeat IPC: 0.123865 cumulative IPC: 0.135824 (Simulation time: 1 hr 34 min 47 sec) 
Heartbeat CPU 0 instructions: 138000002 cycles: 679363032 heartbeat IPC: 0.149715 cumulative IPC: 0.135968 (Simulation time: 1 hr 34 min 58 sec) 
Heartbeat CPU 0 instructions: 139000001 cycles: 686070686 heartbeat IPC: 0.149083 cumulative IPC: 0.136102 (Simulation time: 1 hr 35 min 9 sec) 
Heartbeat CPU 0 instructions: 140000000 cycles: 695349330 heartbeat IPC: 0.107774 cumulative IPC: 0.135706 (Simulation time: 1 hr 35 min 21 sec) 
Heartbeat CPU 0 instructions: 141000001 cycles: 701846291 heartbeat IPC: 0.153918 cumulative IPC: 0.135883 (Simulation time: 1 hr 35 min 30 sec) 
Heartbeat CPU 0 instructions: 142000000 cycles: 708247911 heartbeat IPC: 0.15621 cumulative IPC: 0.136075 (Simulation time: 1 hr 35 min 39 sec) 
Heartbeat CPU 0 instructions: 143000001 cycles: 714720567 heartbeat IPC: 0.154496 cumulative IPC: 0.13625 (Simulation time: 1 hr 35 min 47 sec) 
Heartbeat CPU 0 instructions: 144000000 cycles: 724170657 heartbeat IPC: 0.105819 cumulative IPC: 0.135834 (Simulation time: 1 hr 35 min 57 sec) 
Heartbeat CPU 0 instructions: 145000000 cycles: 730987173 heartbeat IPC: 0.146703 cumulative IPC: 0.13594 (Simulation time: 1 hr 36 min 4 sec) 
Heartbeat CPU 0 instructions: 146000000 cycles: 737759302 heartbeat IPC: 0.147664 cumulative IPC: 0.136053 (Simulation time: 1 hr 36 min 11 sec) 
Heartbeat CPU 0 instructions: 147000000 cycles: 746980517 heartbeat IPC: 0.108446 cumulative IPC: 0.135697 (Simulation time: 1 hr 36 min 18 sec) 
Heartbeat CPU 0 instructions: 148000000 cycles: 753306506 heartbeat IPC: 0.158078 cumulative IPC: 0.135893 (Simulation time: 1 hr 36 min 24 sec) 
Heartbeat CPU 0 instructions: 149000000 cycles: 762189523 heartbeat IPC: 0.112574 cumulative IPC: 0.135609 (Simulation time: 1 hr 36 min 31 sec) 
Heartbeat CPU 0 instructions: 150000001 cycles: 768611488 heartbeat IPC: 0.155716 cumulative IPC: 0.135784 (Simulation time: 1 hr 36 min 37 sec) 
Finished CPU 0 instructions: 100000000 cycles: 736461343 cummulative IPC: 0.135784 (Simulation time: 1 hr 36 min 37 sec) 

ChampSim completed all CPUs

Region of Interest Statistics

CPU 0 cummulative IPC: 0.135784 instructions: 100000000 cycles: 736461343
LLC TOTAL     ACCESS:    9036853  HIT:    2302856  MISS:    6733997
LLC LOAD      ACCESS:    1899430  HIT:     492337  MISS:    1407093
LLC RFO       ACCESS:    1963566  HIT:     390786  MISS:    1572780
LLC PREFETCH  ACCESS:    2282734  HIT:     357398  MISS:    1925336
LLC WRITEBACK ACCESS:    2891123  HIT:    1062335  MISS:    1828788
OPTgen accesses: 93799
OPTgen hits: 50329
OPTgen hit rate: 53.6562


