
*** ChampSim Multicore Out-of-Order Simulator ***

Warmup Instructions: 50000000
Simulation Instructions: 100000000
Configuration: 2
Number of CPUs: 1
LLC sets: 2048
LLC ways: 16
Off-chip DRAM Channels: 1 Width: 64-bit Data Rate: 1600 MT/s

CPU 0 runs /datasets/cs240c-wi22-a00-public/data/Assignment2-gz/wrf_1228B.trace.gz
CPU 0 L1D next line prefetcher
CPU 0 L2C IP-based stride prefetcher
Initialize Hawkeye state
Heartbeat CPU 0 instructions: 1000003 cycles: 591062 heartbeat IPC: 1.69187 cumulative IPC: 1.69187 (Simulation time: 0 hr 0 min 42 sec) 
Heartbeat CPU 0 instructions: 2000003 cycles: 1111191 heartbeat IPC: 1.9226 cumulative IPC: 1.79987 (Simulation time: 0 hr 1 min 21 sec) 
Heartbeat CPU 0 instructions: 3000000 cycles: 1729169 heartbeat IPC: 1.61818 cumulative IPC: 1.73494 (Simulation time: 0 hr 2 min 3 sec) 
Heartbeat CPU 0 instructions: 4000000 cycles: 2349823 heartbeat IPC: 1.6112 cumulative IPC: 1.70226 (Simulation time: 0 hr 2 min 45 sec) 
Heartbeat CPU 0 instructions: 5000000 cycles: 3052186 heartbeat IPC: 1.42377 cumulative IPC: 1.63817 (Simulation time: 0 hr 3 min 23 sec) 
Heartbeat CPU 0 instructions: 6000000 cycles: 3612274 heartbeat IPC: 1.78543 cumulative IPC: 1.661 (Simulation time: 0 hr 3 min 57 sec) 
Heartbeat CPU 0 instructions: 7000001 cycles: 4165036 heartbeat IPC: 1.8091 cumulative IPC: 1.68066 (Simulation time: 0 hr 4 min 35 sec) 
Heartbeat CPU 0 instructions: 8000000 cycles: 4716402 heartbeat IPC: 1.81368 cumulative IPC: 1.69621 (Simulation time: 0 hr 5 min 16 sec) 
Heartbeat CPU 0 instructions: 9000002 cycles: 5266587 heartbeat IPC: 1.81757 cumulative IPC: 1.70889 (Simulation time: 0 hr 5 min 56 sec) 
Heartbeat CPU 0 instructions: 10000001 cycles: 5819483 heartbeat IPC: 1.80866 cumulative IPC: 1.71837 (Simulation time: 0 hr 6 min 30 sec) 
Heartbeat CPU 0 instructions: 11000002 cycles: 6373227 heartbeat IPC: 1.80589 cumulative IPC: 1.72597 (Simulation time: 0 hr 7 min 7 sec) 
Heartbeat CPU 0 instructions: 12000000 cycles: 6924072 heartbeat IPC: 1.81539 cumulative IPC: 1.73308 (Simulation time: 0 hr 7 min 47 sec) 
Heartbeat CPU 0 instructions: 13000003 cycles: 7475097 heartbeat IPC: 1.81481 cumulative IPC: 1.73911 (Simulation time: 0 hr 8 min 22 sec) 
Heartbeat CPU 0 instructions: 14000000 cycles: 7938739 heartbeat IPC: 2.15683 cumulative IPC: 1.7635 (Simulation time: 0 hr 8 min 55 sec) 
Heartbeat CPU 0 instructions: 15000002 cycles: 8329225 heartbeat IPC: 2.56092 cumulative IPC: 1.80089 (Simulation time: 0 hr 9 min 22 sec) 
Heartbeat CPU 0 instructions: 16000000 cycles: 8719690 heartbeat IPC: 2.56104 cumulative IPC: 1.83493 (Simulation time: 0 hr 9 min 55 sec) 
Heartbeat CPU 0 instructions: 17000001 cycles: 9108854 heartbeat IPC: 2.56961 cumulative IPC: 1.86632 (Simulation time: 0 hr 10 min 24 sec) 
Heartbeat CPU 0 instructions: 18000003 cycles: 9499585 heartbeat IPC: 2.55931 cumulative IPC: 1.89482 (Simulation time: 0 hr 10 min 55 sec) 
Heartbeat CPU 0 instructions: 19000001 cycles: 9889929 heartbeat IPC: 2.56184 cumulative IPC: 1.92115 (Simulation time: 0 hr 11 min 22 sec) 
Heartbeat CPU 0 instructions: 20000000 cycles: 10279441 heartbeat IPC: 2.56731 cumulative IPC: 1.94563 (Simulation time: 0 hr 11 min 48 sec) 
Heartbeat CPU 0 instructions: 21000003 cycles: 10669384 heartbeat IPC: 2.56449 cumulative IPC: 1.96825 (Simulation time: 0 hr 12 min 16 sec) 
Heartbeat CPU 0 instructions: 22000000 cycles: 11071715 heartbeat IPC: 2.48551 cumulative IPC: 1.98705 (Simulation time: 0 hr 12 min 46 sec) 
Heartbeat CPU 0 instructions: 23000003 cycles: 11599063 heartbeat IPC: 1.89629 cumulative IPC: 1.98292 (Simulation time: 0 hr 13 min 18 sec) 
Heartbeat CPU 0 instructions: 24000000 cycles: 12126780 heartbeat IPC: 1.89495 cumulative IPC: 1.97909 (Simulation time: 0 hr 13 min 49 sec) 
Heartbeat CPU 0 instructions: 25000000 cycles: 12654061 heartbeat IPC: 1.89652 cumulative IPC: 1.97565 (Simulation time: 0 hr 14 min 21 sec) 
Heartbeat CPU 0 instructions: 26000003 cycles: 13181037 heartbeat IPC: 1.89763 cumulative IPC: 1.97253 (Simulation time: 0 hr 14 min 56 sec) 
Heartbeat CPU 0 instructions: 27000001 cycles: 13707939 heartbeat IPC: 1.89788 cumulative IPC: 1.96966 (Simulation time: 0 hr 15 min 31 sec) 
Heartbeat CPU 0 instructions: 28000000 cycles: 14234997 heartbeat IPC: 1.89732 cumulative IPC: 1.96698 (Simulation time: 0 hr 16 min 2 sec) 
Heartbeat CPU 0 instructions: 29000003 cycles: 14865529 heartbeat IPC: 1.58597 cumulative IPC: 1.95082 (Simulation time: 0 hr 16 min 35 sec) 
Heartbeat CPU 0 instructions: 30000003 cycles: 15479036 heartbeat IPC: 1.62997 cumulative IPC: 1.93811 (Simulation time: 0 hr 17 min 13 sec) 
Heartbeat CPU 0 instructions: 31000001 cycles: 16036362 heartbeat IPC: 1.79428 cumulative IPC: 1.93311 (Simulation time: 0 hr 17 min 50 sec) 
Heartbeat CPU 0 instructions: 32000000 cycles: 16591937 heartbeat IPC: 1.79994 cumulative IPC: 1.92865 (Simulation time: 0 hr 18 min 29 sec) 
Heartbeat CPU 0 instructions: 33000001 cycles: 17212749 heartbeat IPC: 1.6108 cumulative IPC: 1.91718 (Simulation time: 0 hr 19 min 6 sec) 
Heartbeat CPU 0 instructions: 34000003 cycles: 17833321 heartbeat IPC: 1.61142 cumulative IPC: 1.90654 (Simulation time: 0 hr 19 min 44 sec) 
Heartbeat CPU 0 instructions: 35000002 cycles: 18516749 heartbeat IPC: 1.46321 cumulative IPC: 1.89018 (Simulation time: 0 hr 20 min 21 sec) 
Heartbeat CPU 0 instructions: 36000000 cycles: 19069562 heartbeat IPC: 1.80893 cumulative IPC: 1.88783 (Simulation time: 0 hr 20 min 59 sec) 
Heartbeat CPU 0 instructions: 37000001 cycles: 19623052 heartbeat IPC: 1.80672 cumulative IPC: 1.88554 (Simulation time: 0 hr 21 min 31 sec) 
Heartbeat CPU 0 instructions: 38000001 cycles: 20173237 heartbeat IPC: 1.81757 cumulative IPC: 1.88368 (Simulation time: 0 hr 22 min 3 sec) 
Heartbeat CPU 0 instructions: 39000002 cycles: 20724703 heartbeat IPC: 1.81335 cumulative IPC: 1.88181 (Simulation time: 0 hr 22 min 38 sec) 
Heartbeat CPU 0 instructions: 40000000 cycles: 21277160 heartbeat IPC: 1.81009 cumulative IPC: 1.87995 (Simulation time: 0 hr 23 min 9 sec) 
Heartbeat CPU 0 instructions: 41000000 cycles: 21829675 heartbeat IPC: 1.80991 cumulative IPC: 1.87818 (Simulation time: 0 hr 23 min 40 sec) 
Heartbeat CPU 0 instructions: 42000000 cycles: 22382150 heartbeat IPC: 1.81004 cumulative IPC: 1.8765 (Simulation time: 0 hr 24 min 13 sec) 
Heartbeat CPU 0 instructions: 43000000 cycles: 22932644 heartbeat IPC: 1.81655 cumulative IPC: 1.87506 (Simulation time: 0 hr 24 min 43 sec) 
Heartbeat CPU 0 instructions: 44000000 cycles: 23336493 heartbeat IPC: 2.47617 cumulative IPC: 1.88546 (Simulation time: 0 hr 25 min 13 sec) 
Heartbeat CPU 0 instructions: 45000000 cycles: 23726001 heartbeat IPC: 2.56734 cumulative IPC: 1.89665 (Simulation time: 0 hr 25 min 46 sec) 
Heartbeat CPU 0 instructions: 46000000 cycles: 24116128 heartbeat IPC: 2.56327 cumulative IPC: 1.90744 (Simulation time: 0 hr 26 min 15 sec) 
Heartbeat CPU 0 instructions: 47000002 cycles: 24506622 heartbeat IPC: 2.56086 cumulative IPC: 1.91785 (Simulation time: 0 hr 26 min 42 sec) 
Heartbeat CPU 0 instructions: 48000000 cycles: 24896729 heartbeat IPC: 2.56339 cumulative IPC: 1.92796 (Simulation time: 0 hr 27 min 9 sec) 
Heartbeat CPU 0 instructions: 49000001 cycles: 25285980 heartbeat IPC: 2.56904 cumulative IPC: 1.93783 (Simulation time: 0 hr 27 min 39 sec) 
Heartbeat CPU 0 instructions: 50000003 cycles: 25676647 heartbeat IPC: 2.55973 cumulative IPC: 1.94729 (Simulation time: 0 hr 28 min 9 sec) 

Warmup complete CPU 0 instructions: 50000003 cycles: 25676647 (Simulation time: 0 hr 28 min 9 sec) 

Heartbeat CPU 0 instructions: 51000001 cycles: 26516434 heartbeat IPC: 1.19078 cumulative IPC: 1.19078 (Simulation time: 0 hr 28 min 39 sec) 
Heartbeat CPU 0 instructions: 52000000 cycles: 27420533 heartbeat IPC: 1.10607 cumulative IPC: 1.14686 (Simulation time: 0 hr 29 min 12 sec) 
Heartbeat CPU 0 instructions: 53000002 cycles: 28366947 heartbeat IPC: 1.05662 cumulative IPC: 1.11512 (Simulation time: 0 hr 29 min 40 sec) 
Heartbeat CPU 0 instructions: 54000001 cycles: 29320277 heartbeat IPC: 1.04895 cumulative IPC: 1.09781 (Simulation time: 0 hr 30 min 17 sec) 
Heartbeat CPU 0 instructions: 55000001 cycles: 30242094 heartbeat IPC: 1.08481 cumulative IPC: 1.09518 (Simulation time: 0 hr 30 min 48 sec) 
Heartbeat CPU 0 instructions: 56000000 cycles: 31190605 heartbeat IPC: 1.05428 cumulative IPC: 1.08815 (Simulation time: 0 hr 31 min 20 sec) 
Heartbeat CPU 0 instructions: 57000001 cycles: 32125703 heartbeat IPC: 1.06941 cumulative IPC: 1.08543 (Simulation time: 0 hr 31 min 53 sec) 
Heartbeat CPU 0 instructions: 58000000 cycles: 33053590 heartbeat IPC: 1.07772 cumulative IPC: 1.08446 (Simulation time: 0 hr 32 min 25 sec) 
Heartbeat CPU 0 instructions: 59000002 cycles: 34869802 heartbeat IPC: 0.550598 cumulative IPC: 0.978989 (Simulation time: 0 hr 33 min 5 sec) 
Heartbeat CPU 0 instructions: 60000000 cycles: 36459402 heartbeat IPC: 0.629088 cumulative IPC: 0.927406 (Simulation time: 0 hr 33 min 48 sec) 
Heartbeat CPU 0 instructions: 61000000 cycles: 38813351 heartbeat IPC: 0.424818 cumulative IPC: 0.837348 (Simulation time: 0 hr 34 min 29 sec) 
Heartbeat CPU 0 instructions: 62000000 cycles: 40500781 heartbeat IPC: 0.592617 cumulative IPC: 0.809491 (Simulation time: 0 hr 35 min 9 sec) 
Heartbeat CPU 0 instructions: 63000001 cycles: 41964919 heartbeat IPC: 0.682996 cumulative IPC: 0.79812 (Simulation time: 0 hr 35 min 45 sec) 
Heartbeat CPU 0 instructions: 64000000 cycles: 43506056 heartbeat IPC: 0.648871 cumulative IPC: 0.785219 (Simulation time: 0 hr 36 min 26 sec) 
Heartbeat CPU 0 instructions: 65000003 cycles: 45000878 heartbeat IPC: 0.668978 cumulative IPC: 0.776228 (Simulation time: 0 hr 37 min 4 sec) 
Heartbeat CPU 0 instructions: 66000000 cycles: 46496866 heartbeat IPC: 0.668453 cumulative IPC: 0.768484 (Simulation time: 0 hr 37 min 43 sec) 
Heartbeat CPU 0 instructions: 67000000 cycles: 47991393 heartbeat IPC: 0.669108 cumulative IPC: 0.761828 (Simulation time: 0 hr 38 min 21 sec) 
Heartbeat CPU 0 instructions: 68000000 cycles: 49485852 heartbeat IPC: 0.669138 cumulative IPC: 0.75601 (Simulation time: 0 hr 39 min 1 sec) 
Heartbeat CPU 0 instructions: 69000000 cycles: 50993189 heartbeat IPC: 0.663422 cumulative IPC: 0.750497 (Simulation time: 0 hr 39 min 43 sec) 
Heartbeat CPU 0 instructions: 70000001 cycles: 52489742 heartbeat IPC: 0.668203 cumulative IPC: 0.745904 (Simulation time: 0 hr 40 min 25 sec) 
Heartbeat CPU 0 instructions: 71000001 cycles: 53983809 heartbeat IPC: 0.669314 cumulative IPC: 0.741862 (Simulation time: 0 hr 41 min 7 sec) 
Heartbeat CPU 0 instructions: 72000000 cycles: 55466762 heartbeat IPC: 0.67433 cumulative IPC: 0.7385 (Simulation time: 0 hr 41 min 49 sec) 
Heartbeat CPU 0 instructions: 73000003 cycles: 56954472 heartbeat IPC: 0.672176 cumulative IPC: 0.735345 (Simulation time: 0 hr 42 min 27 sec) 
Heartbeat CPU 0 instructions: 74000000 cycles: 58452002 heartbeat IPC: 0.667764 cumulative IPC: 0.732257 (Simulation time: 0 hr 43 min 3 sec) 
Heartbeat CPU 0 instructions: 75000001 cycles: 59945851 heartbeat IPC: 0.669412 cumulative IPC: 0.729518 (Simulation time: 0 hr 43 min 43 sec) 
Heartbeat CPU 0 instructions: 76000000 cycles: 61442398 heartbeat IPC: 0.668204 cumulative IPC: 0.726952 (Simulation time: 0 hr 44 min 21 sec) 
Heartbeat CPU 0 instructions: 77000003 cycles: 62936194 heartbeat IPC: 0.669437 cumulative IPC: 0.724647 (Simulation time: 0 hr 44 min 59 sec) 
Heartbeat CPU 0 instructions: 78000001 cycles: 64430902 heartbeat IPC: 0.669026 cumulative IPC: 0.722501 (Simulation time: 0 hr 45 min 37 sec) 
Heartbeat CPU 0 instructions: 79000000 cycles: 65927343 heartbeat IPC: 0.668252 cumulative IPC: 0.720484 (Simulation time: 0 hr 46 min 14 sec) 
Heartbeat CPU 0 instructions: 80000000 cycles: 67417815 heartbeat IPC: 0.670928 cumulative IPC: 0.718715 (Simulation time: 0 hr 46 min 52 sec) 
Heartbeat CPU 0 instructions: 81000001 cycles: 68901739 heartbeat IPC: 0.67389 cumulative IPC: 0.717176 (Simulation time: 0 hr 47 min 29 sec) 
Heartbeat CPU 0 instructions: 82000000 cycles: 70384560 heartbeat IPC: 0.67439 cumulative IPC: 0.715757 (Simulation time: 0 hr 48 min 7 sec) 
Heartbeat CPU 0 instructions: 83000000 cycles: 71867907 heartbeat IPC: 0.674151 cumulative IPC: 0.714421 (Simulation time: 0 hr 48 min 45 sec) 
Heartbeat CPU 0 instructions: 84000000 cycles: 73362811 heartbeat IPC: 0.668939 cumulative IPC: 0.712995 (Simulation time: 0 hr 49 min 23 sec) 
Heartbeat CPU 0 instructions: 85000000 cycles: 74857691 heartbeat IPC: 0.66895 cumulative IPC: 0.711656 (Simulation time: 0 hr 50 min 2 sec) 
Heartbeat CPU 0 instructions: 86000000 cycles: 76351453 heartbeat IPC: 0.669451 cumulative IPC: 0.710412 (Simulation time: 0 hr 50 min 43 sec) 
Heartbeat CPU 0 instructions: 87000000 cycles: 77846308 heartbeat IPC: 0.668961 cumulative IPC: 0.709224 (Simulation time: 0 hr 51 min 31 sec) 
Heartbeat CPU 0 instructions: 88000000 cycles: 79341524 heartbeat IPC: 0.6688 cumulative IPC: 0.708098 (Simulation time: 0 hr 52 min 16 sec) 
Heartbeat CPU 0 instructions: 89000002 cycles: 80837153 heartbeat IPC: 0.668616 cumulative IPC: 0.707028 (Simulation time: 0 hr 53 min 6 sec) 
Heartbeat CPU 0 instructions: 90000000 cycles: 82321493 heartbeat IPC: 0.673699 cumulative IPC: 0.706154 (Simulation time: 0 hr 53 min 53 sec) 
Heartbeat CPU 0 instructions: 91000000 cycles: 83805112 heartbeat IPC: 0.674028 cumulative IPC: 0.705334 (Simulation time: 0 hr 54 min 39 sec) 
Heartbeat CPU 0 instructions: 92000000 cycles: 85288953 heartbeat IPC: 0.673927 cumulative IPC: 0.704552 (Simulation time: 0 hr 55 min 26 sec) 
Heartbeat CPU 0 instructions: 93000000 cycles: 86778694 heartbeat IPC: 0.671258 cumulative IPC: 0.703741 (Simulation time: 0 hr 56 min 9 sec) 
Heartbeat CPU 0 instructions: 94000003 cycles: 88272550 heartbeat IPC: 0.669411 cumulative IPC: 0.702921 (Simulation time: 0 hr 56 min 57 sec) 
Heartbeat CPU 0 instructions: 95000000 cycles: 89768315 heartbeat IPC: 0.668552 cumulative IPC: 0.702119 (Simulation time: 0 hr 57 min 43 sec) 
Heartbeat CPU 0 instructions: 96000000 cycles: 91262264 heartbeat IPC: 0.669367 cumulative IPC: 0.701373 (Simulation time: 0 hr 58 min 29 sec) 
Heartbeat CPU 0 instructions: 97000001 cycles: 92757814 heartbeat IPC: 0.668651 cumulative IPC: 0.700644 (Simulation time: 0 hr 59 min 15 sec) 
Heartbeat CPU 0 instructions: 98000003 cycles: 94253423 heartbeat IPC: 0.668625 cumulative IPC: 0.699945 (Simulation time: 1 hr 0 min 3 sec) 
Heartbeat CPU 0 instructions: 99000000 cycles: 95742526 heartbeat IPC: 0.671543 cumulative IPC: 0.699342 (Simulation time: 1 hr 0 min 48 sec) 
Heartbeat CPU 0 instructions: 100000000 cycles: 97225919 heartbeat IPC: 0.67413 cumulative IPC: 0.698819 (Simulation time: 1 hr 1 min 34 sec) 
Heartbeat CPU 0 instructions: 101000000 cycles: 98709126 heartbeat IPC: 0.674215 cumulative IPC: 0.698319 (Simulation time: 1 hr 2 min 22 sec) 
Heartbeat CPU 0 instructions: 102000003 cycles: 100192713 heartbeat IPC: 0.674044 cumulative IPC: 0.697836 (Simulation time: 1 hr 3 min 9 sec) 
Heartbeat CPU 0 instructions: 103000003 cycles: 101688974 heartbeat IPC: 0.668333 cumulative IPC: 0.697255 (Simulation time: 1 hr 3 min 54 sec) 
Heartbeat CPU 0 instructions: 104000000 cycles: 103183507 heartbeat IPC: 0.669103 cumulative IPC: 0.696712 (Simulation time: 1 hr 4 min 40 sec) 
Heartbeat CPU 0 instructions: 105000000 cycles: 104678321 heartbeat IPC: 0.66898 cumulative IPC: 0.696188 (Simulation time: 1 hr 5 min 26 sec) 
Heartbeat CPU 0 instructions: 106000000 cycles: 106173380 heartbeat IPC: 0.66887 cumulative IPC: 0.69568 (Simulation time: 1 hr 6 min 12 sec) 
Heartbeat CPU 0 instructions: 107000000 cycles: 107669222 heartbeat IPC: 0.66852 cumulative IPC: 0.695185 (Simulation time: 1 hr 6 min 59 sec) 
Heartbeat CPU 0 instructions: 108000000 cycles: 109164800 heartbeat IPC: 0.668638 cumulative IPC: 0.694709 (Simulation time: 1 hr 7 min 42 sec) 
Heartbeat CPU 0 instructions: 109000003 cycles: 110647643 heartbeat IPC: 0.674382 cumulative IPC: 0.694355 (Simulation time: 1 hr 8 min 27 sec) 
Heartbeat CPU 0 instructions: 110000001 cycles: 112130842 heartbeat IPC: 0.674217 cumulative IPC: 0.694009 (Simulation time: 1 hr 9 min 11 sec) 
Heartbeat CPU 0 instructions: 111000000 cycles: 113614421 heartbeat IPC: 0.674045 cumulative IPC: 0.693672 (Simulation time: 1 hr 9 min 55 sec) 
Heartbeat CPU 0 instructions: 112000000 cycles: 115105795 heartbeat IPC: 0.670523 cumulative IPC: 0.693286 (Simulation time: 1 hr 10 min 39 sec) 
Heartbeat CPU 0 instructions: 113000000 cycles: 116599790 heartbeat IPC: 0.669346 cumulative IPC: 0.692893 (Simulation time: 1 hr 11 min 25 sec) 
Heartbeat CPU 0 instructions: 114000000 cycles: 118095560 heartbeat IPC: 0.668552 cumulative IPC: 0.692499 (Simulation time: 1 hr 12 min 8 sec) 
Heartbeat CPU 0 instructions: 115000003 cycles: 119589653 heartbeat IPC: 0.669304 cumulative IPC: 0.69213 (Simulation time: 1 hr 12 min 51 sec) 
Heartbeat CPU 0 instructions: 116000000 cycles: 121085725 heartbeat IPC: 0.668415 cumulative IPC: 0.691758 (Simulation time: 1 hr 13 min 34 sec) 
Heartbeat CPU 0 instructions: 117000000 cycles: 122581321 heartbeat IPC: 0.66863 cumulative IPC: 0.691401 (Simulation time: 1 hr 14 min 15 sec) 
Heartbeat CPU 0 instructions: 118000000 cycles: 124069122 heartbeat IPC: 0.672133 cumulative IPC: 0.69111 (Simulation time: 1 hr 14 min 58 sec) 
Heartbeat CPU 0 instructions: 119000001 cycles: 125553039 heartbeat IPC: 0.673893 cumulative IPC: 0.690854 (Simulation time: 1 hr 15 min 39 sec) 
Heartbeat CPU 0 instructions: 120000000 cycles: 127036431 heartbeat IPC: 0.67413 cumulative IPC: 0.690609 (Simulation time: 1 hr 16 min 21 sec) 
Heartbeat CPU 0 instructions: 121000000 cycles: 128521143 heartbeat IPC: 0.673531 cumulative IPC: 0.690363 (Simulation time: 1 hr 17 min 3 sec) 
Heartbeat CPU 0 instructions: 122000002 cycles: 130019425 heartbeat IPC: 0.667432 cumulative IPC: 0.690033 (Simulation time: 1 hr 17 min 44 sec) 
Heartbeat CPU 0 instructions: 123000002 cycles: 131521001 heartbeat IPC: 0.665967 cumulative IPC: 0.689692 (Simulation time: 1 hr 18 min 21 sec) 
Heartbeat CPU 0 instructions: 124000000 cycles: 133018222 heartbeat IPC: 0.667903 cumulative IPC: 0.689388 (Simulation time: 1 hr 18 min 57 sec) 
Heartbeat CPU 0 instructions: 125000000 cycles: 134514001 heartbeat IPC: 0.668548 cumulative IPC: 0.689102 (Simulation time: 1 hr 19 min 32 sec) 
Heartbeat CPU 0 instructions: 126000000 cycles: 136027107 heartbeat IPC: 0.660892 cumulative IPC: 0.688715 (Simulation time: 1 hr 20 min 7 sec) 
Heartbeat CPU 0 instructions: 127000000 cycles: 137524028 heartbeat IPC: 0.668038 cumulative IPC: 0.688438 (Simulation time: 1 hr 20 min 39 sec) 
Heartbeat CPU 0 instructions: 128000000 cycles: 139014993 heartbeat IPC: 0.670707 cumulative IPC: 0.688205 (Simulation time: 1 hr 21 min 10 sec) 
Heartbeat CPU 0 instructions: 129000000 cycles: 140498640 heartbeat IPC: 0.674015 cumulative IPC: 0.688021 (Simulation time: 1 hr 21 min 40 sec) 
Heartbeat CPU 0 instructions: 130000001 cycles: 141989058 heartbeat IPC: 0.670953 cumulative IPC: 0.687803 (Simulation time: 1 hr 22 min 11 sec) 
Heartbeat CPU 0 instructions: 131000001 cycles: 143484209 heartbeat IPC: 0.668829 cumulative IPC: 0.687562 (Simulation time: 1 hr 22 min 42 sec) 
Heartbeat CPU 0 instructions: 132000000 cycles: 144979704 heartbeat IPC: 0.668674 cumulative IPC: 0.687325 (Simulation time: 1 hr 23 min 13 sec) 
Heartbeat CPU 0 instructions: 133000000 cycles: 146478116 heartbeat IPC: 0.667373 cumulative IPC: 0.687078 (Simulation time: 1 hr 23 min 43 sec) 
Heartbeat CPU 0 instructions: 134000000 cycles: 147972672 heartbeat IPC: 0.669095 cumulative IPC: 0.686858 (Simulation time: 1 hr 24 min 13 sec) 
Heartbeat CPU 0 instructions: 135000001 cycles: 149467909 heartbeat IPC: 0.668791 cumulative IPC: 0.68664 (Simulation time: 1 hr 24 min 42 sec) 
Heartbeat CPU 0 instructions: 136000000 cycles: 150965561 heartbeat IPC: 0.667711 cumulative IPC: 0.686413 (Simulation time: 1 hr 25 min 12 sec) 
Heartbeat CPU 0 instructions: 137000002 cycles: 152452223 heartbeat IPC: 0.672649 cumulative IPC: 0.686252 (Simulation time: 1 hr 25 min 39 sec) 
Heartbeat CPU 0 instructions: 138000001 cycles: 153937022 heartbeat IPC: 0.673491 cumulative IPC: 0.686104 (Simulation time: 1 hr 26 min 4 sec) 
Heartbeat CPU 0 instructions: 139000001 cycles: 155420712 heartbeat IPC: 0.673995 cumulative IPC: 0.685966 (Simulation time: 1 hr 26 min 31 sec) 
Heartbeat CPU 0 instructions: 140000000 cycles: 156906708 heartbeat IPC: 0.672949 cumulative IPC: 0.685818 (Simulation time: 1 hr 26 min 57 sec) 
Heartbeat CPU 0 instructions: 141000002 cycles: 158402830 heartbeat IPC: 0.668396 cumulative IPC: 0.685622 (Simulation time: 1 hr 27 min 24 sec) 
Heartbeat CPU 0 instructions: 142000000 cycles: 159897912 heartbeat IPC: 0.668858 cumulative IPC: 0.685435 (Simulation time: 1 hr 27 min 49 sec) 
Heartbeat CPU 0 instructions: 143000000 cycles: 161392208 heartbeat IPC: 0.669211 cumulative IPC: 0.685257 (Simulation time: 1 hr 28 min 14 sec) 
Heartbeat CPU 0 instructions: 144000000 cycles: 162886991 heartbeat IPC: 0.668993 cumulative IPC: 0.68508 (Simulation time: 1 hr 28 min 39 sec) 
Heartbeat CPU 0 instructions: 145000000 cycles: 164383229 heartbeat IPC: 0.668343 cumulative IPC: 0.684899 (Simulation time: 1 hr 29 min 3 sec) 
Heartbeat CPU 0 instructions: 146000000 cycles: 165874957 heartbeat IPC: 0.670363 cumulative IPC: 0.684744 (Simulation time: 1 hr 29 min 26 sec) 
Heartbeat CPU 0 instructions: 147000003 cycles: 167357801 heartbeat IPC: 0.674382 cumulative IPC: 0.684636 (Simulation time: 1 hr 29 min 47 sec) 
Heartbeat CPU 0 instructions: 148000000 cycles: 168841932 heartbeat IPC: 0.673793 cumulative IPC: 0.684523 (Simulation time: 1 hr 30 min 8 sec) 
Heartbeat CPU 0 instructions: 149000002 cycles: 170325560 heartbeat IPC: 0.674025 cumulative IPC: 0.684416 (Simulation time: 1 hr 30 min 29 sec) 
Heartbeat CPU 0 instructions: 150000001 cycles: 171819095 heartbeat IPC: 0.669552 cumulative IPC: 0.684264 (Simulation time: 1 hr 30 min 49 sec) 
Finished CPU 0 instructions: 100000001 cycles: 146142452 cummulative IPC: 0.684264 (Simulation time: 1 hr 30 min 49 sec) 

ChampSim completed all CPUs

Region of Interest Statistics

CPU 0 cummulative IPC: 0.684264 instructions: 100000001 cycles: 146142452
LLC TOTAL     ACCESS:     644674  HIT:     138573  MISS:     506101
LLC LOAD      ACCESS:      35801  HIT:      11668  MISS:      24133
LLC RFO       ACCESS:     120254  HIT:       1534  MISS:     118720
LLC PREFETCH  ACCESS:     305995  HIT:      55673  MISS:     250322
LLC WRITEBACK ACCESS:     182624  HIT:      69698  MISS:     112926
OPTgen accesses: 5889
OPTgen hits: 1973
OPTgen hit rate: 33.5031


