
*** ChampSim Multicore Out-of-Order Simulator ***

Warmup Instructions: 50000000
Simulation Instructions: 100000000
Configuration: 2
Number of CPUs: 1
LLC sets: 2048
LLC ways: 16
Off-chip DRAM Channels: 1 Width: 64-bit Data Rate: 1600 MT/s

CPU 0 runs /datasets/cs240c-wi22-a00-public/data/Assignment2-gz/soplex_205B.trace.gz
CPU 0 L1D next line prefetcher
CPU 0 L2C IP-based stride prefetcher
Initialize Hawkeye state
Heartbeat CPU 0 instructions: 1000000 cycles: 395620 heartbeat IPC: 2.52768 cumulative IPC: 2.52768 (Simulation time: 0 hr 0 min 35 sec) 
Heartbeat CPU 0 instructions: 2000002 cycles: 928717 heartbeat IPC: 1.87583 cumulative IPC: 2.15351 (Simulation time: 0 hr 1 min 19 sec) 
Heartbeat CPU 0 instructions: 3000000 cycles: 1400487 heartbeat IPC: 2.11967 cumulative IPC: 2.14211 (Simulation time: 0 hr 2 min 19 sec) 
Heartbeat CPU 0 instructions: 4000000 cycles: 1761654 heartbeat IPC: 2.7688 cumulative IPC: 2.27059 (Simulation time: 0 hr 3 min 7 sec) 
Heartbeat CPU 0 instructions: 5000003 cycles: 2205047 heartbeat IPC: 2.25534 cumulative IPC: 2.26753 (Simulation time: 0 hr 3 min 58 sec) 
Heartbeat CPU 0 instructions: 6000003 cycles: 2624714 heartbeat IPC: 2.38284 cumulative IPC: 2.28596 (Simulation time: 0 hr 4 min 45 sec) 
Heartbeat CPU 0 instructions: 7000000 cycles: 3009148 heartbeat IPC: 2.60122 cumulative IPC: 2.32624 (Simulation time: 0 hr 5 min 29 sec) 
Heartbeat CPU 0 instructions: 8000000 cycles: 3401642 heartbeat IPC: 2.54781 cumulative IPC: 2.35181 (Simulation time: 0 hr 6 min 16 sec) 
Heartbeat CPU 0 instructions: 9000003 cycles: 3924161 heartbeat IPC: 1.91381 cumulative IPC: 2.29348 (Simulation time: 0 hr 7 min 13 sec) 
Heartbeat CPU 0 instructions: 10000000 cycles: 4409440 heartbeat IPC: 2.06066 cumulative IPC: 2.26786 (Simulation time: 0 hr 8 min 20 sec) 
Heartbeat CPU 0 instructions: 11000001 cycles: 4779376 heartbeat IPC: 2.70317 cumulative IPC: 2.30156 (Simulation time: 0 hr 9 min 10 sec) 
Heartbeat CPU 0 instructions: 12000000 cycles: 5216270 heartbeat IPC: 2.28888 cumulative IPC: 2.30049 (Simulation time: 0 hr 10 min 6 sec) 
Heartbeat CPU 0 instructions: 13000001 cycles: 5638662 heartbeat IPC: 2.36747 cumulative IPC: 2.30551 (Simulation time: 0 hr 11 min 1 sec) 
Heartbeat CPU 0 instructions: 14000003 cycles: 6022984 heartbeat IPC: 2.60199 cumulative IPC: 2.32443 (Simulation time: 0 hr 11 min 49 sec) 
Heartbeat CPU 0 instructions: 15000000 cycles: 6433728 heartbeat IPC: 2.4346 cumulative IPC: 2.33146 (Simulation time: 0 hr 12 min 35 sec) 
Heartbeat CPU 0 instructions: 16000000 cycles: 6965771 heartbeat IPC: 1.87955 cumulative IPC: 2.29695 (Simulation time: 0 hr 13 min 26 sec) 
Heartbeat CPU 0 instructions: 17000001 cycles: 7522142 heartbeat IPC: 1.79736 cumulative IPC: 2.25999 (Simulation time: 0 hr 14 min 32 sec) 
Heartbeat CPU 0 instructions: 18000000 cycles: 8034196 heartbeat IPC: 1.95292 cumulative IPC: 2.24042 (Simulation time: 0 hr 15 min 33 sec) 
Heartbeat CPU 0 instructions: 19000002 cycles: 8709441 heartbeat IPC: 1.48095 cumulative IPC: 2.18154 (Simulation time: 0 hr 16 min 14 sec) 
Heartbeat CPU 0 instructions: 20000000 cycles: 9465532 heartbeat IPC: 1.32259 cumulative IPC: 2.11293 (Simulation time: 0 hr 16 min 51 sec) 
Heartbeat CPU 0 instructions: 21000001 cycles: 9911853 heartbeat IPC: 2.24054 cumulative IPC: 2.11868 (Simulation time: 0 hr 17 min 27 sec) 
Heartbeat CPU 0 instructions: 22000000 cycles: 10357197 heartbeat IPC: 2.24545 cumulative IPC: 2.12413 (Simulation time: 0 hr 18 min 7 sec) 
Heartbeat CPU 0 instructions: 23000000 cycles: 10798932 heartbeat IPC: 2.2638 cumulative IPC: 2.12984 (Simulation time: 0 hr 18 min 47 sec) 
Heartbeat CPU 0 instructions: 24000000 cycles: 11300283 heartbeat IPC: 1.99461 cumulative IPC: 2.12384 (Simulation time: 0 hr 19 min 28 sec) 
Heartbeat CPU 0 instructions: 25000002 cycles: 11841325 heartbeat IPC: 1.84829 cumulative IPC: 2.11125 (Simulation time: 0 hr 20 min 11 sec) 
Heartbeat CPU 0 instructions: 26000002 cycles: 12480908 heartbeat IPC: 1.56352 cumulative IPC: 2.08318 (Simulation time: 0 hr 20 min 55 sec) 
Heartbeat CPU 0 instructions: 27000003 cycles: 13067760 heartbeat IPC: 1.70401 cumulative IPC: 2.06615 (Simulation time: 0 hr 21 min 28 sec) 
Heartbeat CPU 0 instructions: 28000000 cycles: 13837810 heartbeat IPC: 1.29861 cumulative IPC: 2.02344 (Simulation time: 0 hr 22 min 9 sec) 
Heartbeat CPU 0 instructions: 29000002 cycles: 14419622 heartbeat IPC: 1.71877 cumulative IPC: 2.01115 (Simulation time: 0 hr 22 min 43 sec) 
Heartbeat CPU 0 instructions: 30000003 cycles: 14839941 heartbeat IPC: 2.37915 cumulative IPC: 2.02157 (Simulation time: 0 hr 23 min 9 sec) 
Heartbeat CPU 0 instructions: 31000003 cycles: 15306373 heartbeat IPC: 2.14394 cumulative IPC: 2.0253 (Simulation time: 0 hr 23 min 44 sec) 
Heartbeat CPU 0 instructions: 32000000 cycles: 15813621 heartbeat IPC: 1.97142 cumulative IPC: 2.02357 (Simulation time: 0 hr 24 min 20 sec) 
Heartbeat CPU 0 instructions: 33000000 cycles: 16346988 heartbeat IPC: 1.87488 cumulative IPC: 2.01872 (Simulation time: 0 hr 24 min 54 sec) 
Heartbeat CPU 0 instructions: 34000003 cycles: 16846323 heartbeat IPC: 2.00267 cumulative IPC: 2.01824 (Simulation time: 0 hr 25 min 27 sec) 
Heartbeat CPU 0 instructions: 35000003 cycles: 17214221 heartbeat IPC: 2.71814 cumulative IPC: 2.0332 (Simulation time: 0 hr 25 min 58 sec) 
Heartbeat CPU 0 instructions: 36000000 cycles: 17655730 heartbeat IPC: 2.26495 cumulative IPC: 2.039 (Simulation time: 0 hr 26 min 35 sec) 
Heartbeat CPU 0 instructions: 37000000 cycles: 18076862 heartbeat IPC: 2.37455 cumulative IPC: 2.04682 (Simulation time: 0 hr 27 min 12 sec) 
Heartbeat CPU 0 instructions: 38000003 cycles: 18460893 heartbeat IPC: 2.60396 cumulative IPC: 2.05841 (Simulation time: 0 hr 27 min 39 sec) 
Heartbeat CPU 0 instructions: 39000003 cycles: 18851475 heartbeat IPC: 2.56028 cumulative IPC: 2.0688 (Simulation time: 0 hr 28 min 5 sec) 
Heartbeat CPU 0 instructions: 40000000 cycles: 19375584 heartbeat IPC: 1.90799 cumulative IPC: 2.06445 (Simulation time: 0 hr 28 min 38 sec) 
Heartbeat CPU 0 instructions: 41000000 cycles: 19771171 heartbeat IPC: 2.52789 cumulative IPC: 2.07373 (Simulation time: 0 hr 29 min 12 sec) 
Heartbeat CPU 0 instructions: 42000001 cycles: 20189485 heartbeat IPC: 2.39055 cumulative IPC: 2.08029 (Simulation time: 0 hr 29 min 42 sec) 
Heartbeat CPU 0 instructions: 43000001 cycles: 20614125 heartbeat IPC: 2.35494 cumulative IPC: 2.08595 (Simulation time: 0 hr 30 min 24 sec) 
Heartbeat CPU 0 instructions: 44000000 cycles: 21013349 heartbeat IPC: 2.50486 cumulative IPC: 2.09391 (Simulation time: 0 hr 30 min 52 sec) 
Heartbeat CPU 0 instructions: 45000001 cycles: 21398049 heartbeat IPC: 2.59943 cumulative IPC: 2.103 (Simulation time: 0 hr 31 min 17 sec) 
Heartbeat CPU 0 instructions: 46000000 cycles: 21882996 heartbeat IPC: 2.06208 cumulative IPC: 2.10209 (Simulation time: 0 hr 31 min 45 sec) 
Heartbeat CPU 0 instructions: 47000000 cycles: 22338794 heartbeat IPC: 2.19395 cumulative IPC: 2.10396 (Simulation time: 0 hr 32 min 25 sec) 
Heartbeat CPU 0 instructions: 48000000 cycles: 22780565 heartbeat IPC: 2.26362 cumulative IPC: 2.10706 (Simulation time: 0 hr 32 min 56 sec) 
Heartbeat CPU 0 instructions: 49000001 cycles: 23196157 heartbeat IPC: 2.40621 cumulative IPC: 2.11242 (Simulation time: 0 hr 33 min 22 sec) 
Heartbeat CPU 0 instructions: 50000003 cycles: 23617451 heartbeat IPC: 2.37364 cumulative IPC: 2.11708 (Simulation time: 0 hr 33 min 53 sec) 

Warmup complete CPU 0 instructions: 50000003 cycles: 23617451 (Simulation time: 0 hr 33 min 53 sec) 

Heartbeat CPU 0 instructions: 51000003 cycles: 25880588 heartbeat IPC: 0.441865 cumulative IPC: 0.441865 (Simulation time: 0 hr 34 min 24 sec) 
Heartbeat CPU 0 instructions: 52000000 cycles: 26993333 heartbeat IPC: 0.898676 cumulative IPC: 0.592437 (Simulation time: 0 hr 34 min 48 sec) 
Heartbeat CPU 0 instructions: 53000003 cycles: 30185646 heartbeat IPC: 0.313253 cumulative IPC: 0.456746 (Simulation time: 0 hr 35 min 26 sec) 
Heartbeat CPU 0 instructions: 54000001 cycles: 33480128 heartbeat IPC: 0.303537 cumulative IPC: 0.405569 (Simulation time: 0 hr 36 min 8 sec) 
Heartbeat CPU 0 instructions: 55000001 cycles: 36534411 heartbeat IPC: 0.327409 cumulative IPC: 0.387088 (Simulation time: 0 hr 36 min 51 sec) 
Heartbeat CPU 0 instructions: 56000000 cycles: 38332670 heartbeat IPC: 0.556093 cumulative IPC: 0.407741 (Simulation time: 0 hr 37 min 26 sec) 
Heartbeat CPU 0 instructions: 57000000 cycles: 41621097 heartbeat IPC: 0.304097 cumulative IPC: 0.38881 (Simulation time: 0 hr 38 min 12 sec) 
Heartbeat CPU 0 instructions: 58000000 cycles: 43749160 heartbeat IPC: 0.469911 cumulative IPC: 0.397383 (Simulation time: 0 hr 38 min 43 sec) 
Heartbeat CPU 0 instructions: 59000001 cycles: 44851124 heartbeat IPC: 0.907472 cumulative IPC: 0.423855 (Simulation time: 0 hr 39 min 11 sec) 
Heartbeat CPU 0 instructions: 60000000 cycles: 48123932 heartbeat IPC: 0.305548 cumulative IPC: 0.408055 (Simulation time: 0 hr 39 min 48 sec) 
Heartbeat CPU 0 instructions: 61000003 cycles: 51389726 heartbeat IPC: 0.306205 cumulative IPC: 0.396078 (Simulation time: 0 hr 40 min 43 sec) 
Heartbeat CPU 0 instructions: 62000002 cycles: 54564949 heartbeat IPC: 0.314938 cumulative IPC: 0.387753 (Simulation time: 0 hr 41 min 36 sec) 
Heartbeat CPU 0 instructions: 63000001 cycles: 56139441 heartbeat IPC: 0.635125 cumulative IPC: 0.399729 (Simulation time: 0 hr 42 min 30 sec) 
Heartbeat CPU 0 instructions: 64000000 cycles: 59803610 heartbeat IPC: 0.272913 cumulative IPC: 0.386888 (Simulation time: 0 hr 43 min 43 sec) 
Heartbeat CPU 0 instructions: 65000001 cycles: 61578434 heartbeat IPC: 0.563437 cumulative IPC: 0.395142 (Simulation time: 0 hr 44 min 26 sec) 
Heartbeat CPU 0 instructions: 66000000 cycles: 62672875 heartbeat IPC: 0.913708 cumulative IPC: 0.409674 (Simulation time: 0 hr 44 min 58 sec) 
Heartbeat CPU 0 instructions: 67000003 cycles: 65682395 heartbeat IPC: 0.33228 cumulative IPC: 0.404137 (Simulation time: 0 hr 45 min 40 sec) 
Heartbeat CPU 0 instructions: 68000000 cycles: 68921872 heartbeat IPC: 0.308691 cumulative IPC: 0.397312 (Simulation time: 0 hr 46 min 21 sec) 
Heartbeat CPU 0 instructions: 69000001 cycles: 71904324 heartbeat IPC: 0.335295 cumulative IPC: 0.393482 (Simulation time: 0 hr 47 min 10 sec) 
Heartbeat CPU 0 instructions: 70000000 cycles: 73729372 heartbeat IPC: 0.54793 cumulative IPC: 0.399107 (Simulation time: 0 hr 47 min 49 sec) 
Heartbeat CPU 0 instructions: 71000001 cycles: 77092056 heartbeat IPC: 0.297382 cumulative IPC: 0.39271 (Simulation time: 0 hr 48 min 31 sec) 
Heartbeat CPU 0 instructions: 72000000 cycles: 79221270 heartbeat IPC: 0.469656 cumulative IPC: 0.395656 (Simulation time: 0 hr 49 min 5 sec) 
Heartbeat CPU 0 instructions: 73000000 cycles: 80331627 heartbeat IPC: 0.900611 cumulative IPC: 0.405542 (Simulation time: 0 hr 49 min 31 sec) 
Heartbeat CPU 0 instructions: 74000001 cycles: 83223991 heartbeat IPC: 0.345738 cumulative IPC: 0.40264 (Simulation time: 0 hr 50 min 6 sec) 
Heartbeat CPU 0 instructions: 75000003 cycles: 86561329 heartbeat IPC: 0.299641 cumulative IPC: 0.397179 (Simulation time: 0 hr 50 min 52 sec) 
Heartbeat CPU 0 instructions: 76000000 cycles: 89840792 heartbeat IPC: 0.304927 cumulative IPC: 0.392611 (Simulation time: 0 hr 51 min 43 sec) 
Heartbeat CPU 0 instructions: 77000000 cycles: 91357354 heartbeat IPC: 0.659386 cumulative IPC: 0.398583 (Simulation time: 0 hr 52 min 25 sec) 
Heartbeat CPU 0 instructions: 78000000 cycles: 95122108 heartbeat IPC: 0.265622 cumulative IPC: 0.391583 (Simulation time: 0 hr 53 min 22 sec) 
Heartbeat CPU 0 instructions: 79000002 cycles: 96805883 heartbeat IPC: 0.593905 cumulative IPC: 0.396237 (Simulation time: 0 hr 53 min 54 sec) 
Heartbeat CPU 0 instructions: 80000000 cycles: 97895592 heartbeat IPC: 0.917674 cumulative IPC: 0.403887 (Simulation time: 0 hr 54 min 25 sec) 
Heartbeat CPU 0 instructions: 81000000 cycles: 101237941 heartbeat IPC: 0.299191 cumulative IPC: 0.399379 (Simulation time: 0 hr 55 min 17 sec) 
Heartbeat CPU 0 instructions: 82000000 cycles: 104522673 heartbeat IPC: 0.304439 cumulative IPC: 0.395525 (Simulation time: 0 hr 56 min 15 sec) 
Heartbeat CPU 0 instructions: 83000000 cycles: 107861446 heartbeat IPC: 0.299511 cumulative IPC: 0.391719 (Simulation time: 0 hr 57 min 11 sec) 
Heartbeat CPU 0 instructions: 84000000 cycles: 109513519 heartbeat IPC: 0.6053 cumulative IPC: 0.395827 (Simulation time: 0 hr 57 min 54 sec) 
Heartbeat CPU 0 instructions: 85000000 cycles: 113356097 heartbeat IPC: 0.260242 cumulative IPC: 0.390021 (Simulation time: 0 hr 58 min 49 sec) 
Heartbeat CPU 0 instructions: 86000002 cycles: 114694404 heartbeat IPC: 0.747214 cumulative IPC: 0.39527 (Simulation time: 0 hr 59 min 17 sec) 
Heartbeat CPU 0 instructions: 87000002 cycles: 115780292 heartbeat IPC: 0.920905 cumulative IPC: 0.401463 (Simulation time: 0 hr 59 min 47 sec) 
Heartbeat CPU 0 instructions: 88000000 cycles: 118828835 heartbeat IPC: 0.328025 cumulative IPC: 0.399112 (Simulation time: 1 hr 0 min 34 sec) 
Heartbeat CPU 0 instructions: 89000001 cycles: 122509865 heartbeat IPC: 0.271663 cumulative IPC: 0.394368 (Simulation time: 1 hr 1 min 30 sec) 
Heartbeat CPU 0 instructions: 90000001 cycles: 125569442 heartbeat IPC: 0.326843 cumulative IPC: 0.392341 (Simulation time: 1 hr 2 min 19 sec) 
Heartbeat CPU 0 instructions: 91000003 cycles: 127371710 heartbeat IPC: 0.554858 cumulative IPC: 0.395164 (Simulation time: 1 hr 3 min 2 sec) 
Heartbeat CPU 0 instructions: 92000000 cycles: 130992794 heartbeat IPC: 0.27616 cumulative IPC: 0.391151 (Simulation time: 1 hr 3 min 56 sec) 
Heartbeat CPU 0 instructions: 93000000 cycles: 132179266 heartbeat IPC: 0.842835 cumulative IPC: 0.396088 (Simulation time: 1 hr 4 min 25 sec) 
Heartbeat CPU 0 instructions: 94000000 cycles: 133455166 heartbeat IPC: 0.78376 cumulative IPC: 0.400591 (Simulation time: 1 hr 4 min 55 sec) 
Heartbeat CPU 0 instructions: 95000002 cycles: 136902617 heartbeat IPC: 0.29007 cumulative IPC: 0.397228 (Simulation time: 1 hr 5 min 43 sec) 
Heartbeat CPU 0 instructions: 96000000 cycles: 139796185 heartbeat IPC: 0.345593 cumulative IPC: 0.395942 (Simulation time: 1 hr 6 min 33 sec) 
Heartbeat CPU 0 instructions: 97000003 cycles: 142508805 heartbeat IPC: 0.368648 cumulative IPC: 0.395319 (Simulation time: 1 hr 7 min 16 sec) 
Heartbeat CPU 0 instructions: 98000003 cycles: 144763288 heartbeat IPC: 0.443561 cumulative IPC: 0.396217 (Simulation time: 1 hr 8 min 2 sec) 
Heartbeat CPU 0 instructions: 99000000 cycles: 147966051 heartbeat IPC: 0.312229 cumulative IPC: 0.394053 (Simulation time: 1 hr 8 min 51 sec) 
Heartbeat CPU 0 instructions: 100000000 cycles: 149132001 heartbeat IPC: 0.85767 cumulative IPC: 0.39836 (Simulation time: 1 hr 9 min 21 sec) 
Heartbeat CPU 0 instructions: 101000003 cycles: 151008474 heartbeat IPC: 0.532916 cumulative IPC: 0.400342 (Simulation time: 1 hr 9 min 57 sec) 
Heartbeat CPU 0 instructions: 102000002 cycles: 154360115 heartbeat IPC: 0.298361 cumulative IPC: 0.397728 (Simulation time: 1 hr 10 min 48 sec) 
Heartbeat CPU 0 instructions: 103000000 cycles: 156464247 heartbeat IPC: 0.475254 cumulative IPC: 0.398956 (Simulation time: 1 hr 11 min 39 sec) 
Heartbeat CPU 0 instructions: 104000000 cycles: 165110815 heartbeat IPC: 0.115653 cumulative IPC: 0.381643 (Simulation time: 1 hr 12 min 46 sec) 
Heartbeat CPU 0 instructions: 105000000 cycles: 167136266 heartbeat IPC: 0.493717 cumulative IPC: 0.383225 (Simulation time: 1 hr 13 min 41 sec) 
Heartbeat CPU 0 instructions: 106000002 cycles: 171275862 heartbeat IPC: 0.24157 cumulative IPC: 0.379254 (Simulation time: 1 hr 14 min 33 sec) 
Heartbeat CPU 0 instructions: 107000003 cycles: 175577381 heartbeat IPC: 0.232476 cumulative IPC: 0.375099 (Simulation time: 1 hr 15 min 24 sec) 
Heartbeat CPU 0 instructions: 108000000 cycles: 178894462 heartbeat IPC: 0.301469 cumulative IPC: 0.373526 (Simulation time: 1 hr 16 min 8 sec) 
Heartbeat CPU 0 instructions: 109000000 cycles: 182280650 heartbeat IPC: 0.295317 cumulative IPC: 0.371857 (Simulation time: 1 hr 16 min 55 sec) 
Heartbeat CPU 0 instructions: 110000003 cycles: 185849718 heartbeat IPC: 0.280186 cumulative IPC: 0.36984 (Simulation time: 1 hr 17 min 33 sec) 
Heartbeat CPU 0 instructions: 111000002 cycles: 189405691 heartbeat IPC: 0.281217 cumulative IPC: 0.367939 (Simulation time: 1 hr 18 min 19 sec) 
Heartbeat CPU 0 instructions: 112000000 cycles: 192032380 heartbeat IPC: 0.380707 cumulative IPC: 0.368138 (Simulation time: 1 hr 18 min 55 sec) 
Heartbeat CPU 0 instructions: 113000001 cycles: 195383340 heartbeat IPC: 0.298422 cumulative IPC: 0.366778 (Simulation time: 1 hr 19 min 35 sec) 
Heartbeat CPU 0 instructions: 114000000 cycles: 197357443 heartbeat IPC: 0.506559 cumulative IPC: 0.368367 (Simulation time: 1 hr 20 min 9 sec) 
Heartbeat CPU 0 instructions: 115000002 cycles: 198648321 heartbeat IPC: 0.774668 cumulative IPC: 0.371363 (Simulation time: 1 hr 20 min 41 sec) 
Heartbeat CPU 0 instructions: 116000000 cycles: 200039005 heartbeat IPC: 0.719069 cumulative IPC: 0.374104 (Simulation time: 1 hr 21 min 7 sec) 
Heartbeat CPU 0 instructions: 117000001 cycles: 202695242 heartbeat IPC: 0.376473 cumulative IPC: 0.374139 (Simulation time: 1 hr 21 min 43 sec) 
Heartbeat CPU 0 instructions: 118000002 cycles: 205494946 heartbeat IPC: 0.357181 cumulative IPC: 0.373878 (Simulation time: 1 hr 22 min 18 sec) 
Heartbeat CPU 0 instructions: 119000001 cycles: 207438703 heartbeat IPC: 0.514467 cumulative IPC: 0.375365 (Simulation time: 1 hr 22 min 49 sec) 
Heartbeat CPU 0 instructions: 120000000 cycles: 210123529 heartbeat IPC: 0.372463 cumulative IPC: 0.375323 (Simulation time: 1 hr 23 min 19 sec) 
Heartbeat CPU 0 instructions: 121000000 cycles: 211857443 heartbeat IPC: 0.57673 cumulative IPC: 0.377178 (Simulation time: 1 hr 23 min 49 sec) 
Heartbeat CPU 0 instructions: 122000000 cycles: 215726485 heartbeat IPC: 0.258462 cumulative IPC: 0.374787 (Simulation time: 1 hr 24 min 26 sec) 
Heartbeat CPU 0 instructions: 123000001 cycles: 216950689 heartbeat IPC: 0.816858 cumulative IPC: 0.377586 (Simulation time: 1 hr 24 min 46 sec) 
Heartbeat CPU 0 instructions: 124000000 cycles: 218178942 heartbeat IPC: 0.814164 cumulative IPC: 0.380342 (Simulation time: 1 hr 25 min 5 sec) 
Heartbeat CPU 0 instructions: 125000001 cycles: 221173931 heartbeat IPC: 0.333891 cumulative IPC: 0.379638 (Simulation time: 1 hr 25 min 35 sec) 
Heartbeat CPU 0 instructions: 126000000 cycles: 225177720 heartbeat IPC: 0.249763 cumulative IPC: 0.377058 (Simulation time: 1 hr 26 min 10 sec) 
Heartbeat CPU 0 instructions: 127000003 cycles: 227551600 heartbeat IPC: 0.421253 cumulative IPC: 0.377573 (Simulation time: 1 hr 26 min 34 sec) 
Heartbeat CPU 0 instructions: 128000000 cycles: 230385992 heartbeat IPC: 0.352808 cumulative IPC: 0.377233 (Simulation time: 1 hr 27 min 4 sec) 
Heartbeat CPU 0 instructions: 129000000 cycles: 233064548 heartbeat IPC: 0.373335 cumulative IPC: 0.377184 (Simulation time: 1 hr 27 min 28 sec) 
Heartbeat CPU 0 instructions: 130000003 cycles: 234205892 heartbeat IPC: 0.876163 cumulative IPC: 0.379888 (Simulation time: 1 hr 27 min 45 sec) 
Heartbeat CPU 0 instructions: 131000001 cycles: 236749223 heartbeat IPC: 0.393184 cumulative IPC: 0.380047 (Simulation time: 1 hr 28 min 7 sec) 
Heartbeat CPU 0 instructions: 132000000 cycles: 239993949 heartbeat IPC: 0.308192 cumulative IPC: 0.378969 (Simulation time: 1 hr 28 min 37 sec) 
Heartbeat CPU 0 instructions: 133000000 cycles: 242814270 heartbeat IPC: 0.35457 cumulative IPC: 0.378655 (Simulation time: 1 hr 29 min 2 sec) 
Heartbeat CPU 0 instructions: 134000002 cycles: 244367046 heartbeat IPC: 0.644009 cumulative IPC: 0.380522 (Simulation time: 1 hr 29 min 22 sec) 
Heartbeat CPU 0 instructions: 135000002 cycles: 248116377 heartbeat IPC: 0.266714 cumulative IPC: 0.378621 (Simulation time: 1 hr 29 min 50 sec) 
Heartbeat CPU 0 instructions: 136000000 cycles: 249866187 heartbeat IPC: 0.571489 cumulative IPC: 0.380113 (Simulation time: 1 hr 30 min 5 sec) 
Heartbeat CPU 0 instructions: 137000000 cycles: 250961095 heartbeat IPC: 0.913319 cumulative IPC: 0.382681 (Simulation time: 1 hr 30 min 19 sec) 
Heartbeat CPU 0 instructions: 138000003 cycles: 254036644 heartbeat IPC: 0.325146 cumulative IPC: 0.381913 (Simulation time: 1 hr 30 min 39 sec) 
Heartbeat CPU 0 instructions: 139000000 cycles: 257256326 heartbeat IPC: 0.310589 cumulative IPC: 0.38093 (Simulation time: 1 hr 31 min 1 sec) 
Heartbeat CPU 0 instructions: 140000000 cycles: 259361958 heartbeat IPC: 0.474917 cumulative IPC: 0.381769 (Simulation time: 1 hr 31 min 18 sec) 
Heartbeat CPU 0 instructions: 141000002 cycles: 261075992 heartbeat IPC: 0.58342 cumulative IPC: 0.383225 (Simulation time: 1 hr 31 min 35 sec) 
Heartbeat CPU 0 instructions: 142000001 cycles: 264586194 heartbeat IPC: 0.284884 cumulative IPC: 0.381792 (Simulation time: 1 hr 31 min 56 sec) 
Heartbeat CPU 0 instructions: 143000003 cycles: 266561323 heartbeat IPC: 0.506297 cumulative IPC: 0.382804 (Simulation time: 1 hr 32 min 9 sec) 
Heartbeat CPU 0 instructions: 144000000 cycles: 267659691 heartbeat IPC: 0.910439 cumulative IPC: 0.385179 (Simulation time: 1 hr 32 min 20 sec) 
Heartbeat CPU 0 instructions: 145000000 cycles: 270736161 heartbeat IPC: 0.325048 cumulative IPC: 0.384431 (Simulation time: 1 hr 32 min 37 sec) 
Heartbeat CPU 0 instructions: 146000003 cycles: 273985922 heartbeat IPC: 0.307716 cumulative IPC: 0.383435 (Simulation time: 1 hr 32 min 56 sec) 
Heartbeat CPU 0 instructions: 147000000 cycles: 275985302 heartbeat IPC: 0.500154 cumulative IPC: 0.38436 (Simulation time: 1 hr 33 min 10 sec) 
Heartbeat CPU 0 instructions: 148000000 cycles: 277489414 heartbeat IPC: 0.664844 cumulative IPC: 0.386021 (Simulation time: 1 hr 33 min 23 sec) 
Heartbeat CPU 0 instructions: 149000001 cycles: 281321117 heartbeat IPC: 0.260981 cumulative IPC: 0.384162 (Simulation time: 1 hr 33 min 42 sec) 
Heartbeat CPU 0 instructions: 150000002 cycles: 283013161 heartbeat IPC: 0.591002 cumulative IPC: 0.385511 (Simulation time: 1 hr 33 min 52 sec) 
Finished CPU 0 instructions: 100000002 cycles: 259395712 cummulative IPC: 0.385511 (Simulation time: 1 hr 33 min 52 sec) 

ChampSim completed all CPUs

Region of Interest Statistics

CPU 0 cummulative IPC: 0.385511 instructions: 100000002 cycles: 259395712
LLC TOTAL     ACCESS:    8439179  HIT:    4596073  MISS:    3843106
LLC LOAD      ACCESS:    2160838  HIT:    1008824  MISS:    1152014
LLC RFO       ACCESS:     775962  HIT:     266780  MISS:     509182
LLC PREFETCH  ACCESS:    3416478  HIT:    1595431  MISS:    1821047
LLC WRITEBACK ACCESS:    2085901  HIT:    1725038  MISS:     360863
OPTgen accesses: 69973
OPTgen hits: 51339
OPTgen hit rate: 73.3697


