
*** ChampSim Multicore Out-of-Order Simulator ***

Warmup Instructions: 50000000
Simulation Instructions: 100000000
Configuration: 2
Number of CPUs: 1
LLC sets: 2048
LLC ways: 16
Off-chip DRAM Channels: 1 Width: 64-bit Data Rate: 1600 MT/s

CPU 0 runs /datasets/cs240c-wi22-a00-public/data/Assignment2-gz/calculix_2655B.trace.gz
CPU 0 L1D next line prefetcher
CPU 0 L2C IP-based stride prefetcher
Initialize Hawkeye state
Heartbeat CPU 0 instructions: 1000003 cycles: 392383 heartbeat IPC: 2.54854 cumulative IPC: 2.54854 (Simulation time: 0 hr 0 min 28 sec) 
Heartbeat CPU 0 instructions: 2000001 cycles: 785148 heartbeat IPC: 2.54605 cumulative IPC: 2.54729 (Simulation time: 0 hr 0 min 55 sec) 
Heartbeat CPU 0 instructions: 3000002 cycles: 1177684 heartbeat IPC: 2.54754 cumulative IPC: 2.54737 (Simulation time: 0 hr 1 min 21 sec) 
Heartbeat CPU 0 instructions: 4000000 cycles: 1569447 heartbeat IPC: 2.55256 cumulative IPC: 2.54867 (Simulation time: 0 hr 1 min 48 sec) 
Heartbeat CPU 0 instructions: 5000003 cycles: 1961684 heartbeat IPC: 2.54949 cumulative IPC: 2.54883 (Simulation time: 0 hr 2 min 16 sec) 
Heartbeat CPU 0 instructions: 6000003 cycles: 2353797 heartbeat IPC: 2.55029 cumulative IPC: 2.54907 (Simulation time: 0 hr 2 min 43 sec) 
Heartbeat CPU 0 instructions: 7000002 cycles: 2745952 heartbeat IPC: 2.55001 cumulative IPC: 2.54921 (Simulation time: 0 hr 3 min 12 sec) 
Heartbeat CPU 0 instructions: 8000000 cycles: 3137922 heartbeat IPC: 2.55121 cumulative IPC: 2.54946 (Simulation time: 0 hr 3 min 38 sec) 
Heartbeat CPU 0 instructions: 9000001 cycles: 3530092 heartbeat IPC: 2.54992 cumulative IPC: 2.54951 (Simulation time: 0 hr 4 min 4 sec) 
Heartbeat CPU 0 instructions: 10000000 cycles: 3921558 heartbeat IPC: 2.5545 cumulative IPC: 2.55001 (Simulation time: 0 hr 4 min 30 sec) 
Heartbeat CPU 0 instructions: 11000001 cycles: 4313698 heartbeat IPC: 2.55011 cumulative IPC: 2.55002 (Simulation time: 0 hr 4 min 57 sec) 
Heartbeat CPU 0 instructions: 12000000 cycles: 4705815 heartbeat IPC: 2.55026 cumulative IPC: 2.55004 (Simulation time: 0 hr 5 min 21 sec) 
Heartbeat CPU 0 instructions: 13000001 cycles: 5097794 heartbeat IPC: 2.55116 cumulative IPC: 2.55012 (Simulation time: 0 hr 5 min 47 sec) 
Heartbeat CPU 0 instructions: 14000000 cycles: 5489937 heartbeat IPC: 2.55009 cumulative IPC: 2.55012 (Simulation time: 0 hr 6 min 10 sec) 
Heartbeat CPU 0 instructions: 15000000 cycles: 5882119 heartbeat IPC: 2.54984 cumulative IPC: 2.5501 (Simulation time: 0 hr 6 min 35 sec) 
Heartbeat CPU 0 instructions: 16000000 cycles: 6273564 heartbeat IPC: 2.55464 cumulative IPC: 2.55038 (Simulation time: 0 hr 7 min 0 sec) 
Heartbeat CPU 0 instructions: 17000001 cycles: 6665713 heartbeat IPC: 2.55005 cumulative IPC: 2.55036 (Simulation time: 0 hr 7 min 23 sec) 
Heartbeat CPU 0 instructions: 18000000 cycles: 7057686 heartbeat IPC: 2.55119 cumulative IPC: 2.55041 (Simulation time: 0 hr 7 min 49 sec) 
Heartbeat CPU 0 instructions: 19000001 cycles: 7449723 heartbeat IPC: 2.55078 cumulative IPC: 2.55043 (Simulation time: 0 hr 8 min 17 sec) 
Heartbeat CPU 0 instructions: 20000000 cycles: 7841801 heartbeat IPC: 2.55051 cumulative IPC: 2.55043 (Simulation time: 0 hr 8 min 40 sec) 
Heartbeat CPU 0 instructions: 21000000 cycles: 8233873 heartbeat IPC: 2.55055 cumulative IPC: 2.55044 (Simulation time: 0 hr 9 min 3 sec) 
Heartbeat CPU 0 instructions: 22000003 cycles: 8625361 heartbeat IPC: 2.55436 cumulative IPC: 2.55062 (Simulation time: 0 hr 9 min 28 sec) 
Heartbeat CPU 0 instructions: 23000001 cycles: 9017267 heartbeat IPC: 2.55163 cumulative IPC: 2.55066 (Simulation time: 0 hr 9 min 52 sec) 
Heartbeat CPU 0 instructions: 24000000 cycles: 9409396 heartbeat IPC: 2.55018 cumulative IPC: 2.55064 (Simulation time: 0 hr 10 min 17 sec) 
Heartbeat CPU 0 instructions: 25000000 cycles: 9801560 heartbeat IPC: 2.54995 cumulative IPC: 2.55061 (Simulation time: 0 hr 10 min 42 sec) 
Heartbeat CPU 0 instructions: 26000003 cycles: 10193690 heartbeat IPC: 2.55018 cumulative IPC: 2.5506 (Simulation time: 0 hr 11 min 7 sec) 
Heartbeat CPU 0 instructions: 27000002 cycles: 10584895 heartbeat IPC: 2.5562 cumulative IPC: 2.5508 (Simulation time: 0 hr 11 min 32 sec) 
Heartbeat CPU 0 instructions: 28000000 cycles: 10976916 heartbeat IPC: 2.55088 cumulative IPC: 2.55081 (Simulation time: 0 hr 11 min 56 sec) 
Heartbeat CPU 0 instructions: 29000001 cycles: 11368996 heartbeat IPC: 2.5505 cumulative IPC: 2.5508 (Simulation time: 0 hr 12 min 19 sec) 
Heartbeat CPU 0 instructions: 30000002 cycles: 11761165 heartbeat IPC: 2.54992 cumulative IPC: 2.55077 (Simulation time: 0 hr 12 min 42 sec) 
Heartbeat CPU 0 instructions: 31000001 cycles: 12153347 heartbeat IPC: 2.54983 cumulative IPC: 2.55074 (Simulation time: 0 hr 13 min 4 sec) 
Heartbeat CPU 0 instructions: 32000000 cycles: 12545302 heartbeat IPC: 2.55131 cumulative IPC: 2.55076 (Simulation time: 0 hr 13 min 28 sec) 
Heartbeat CPU 0 instructions: 33000003 cycles: 12936585 heartbeat IPC: 2.5557 cumulative IPC: 2.55091 (Simulation time: 0 hr 13 min 50 sec) 
Heartbeat CPU 0 instructions: 34000003 cycles: 13328592 heartbeat IPC: 2.55097 cumulative IPC: 2.55091 (Simulation time: 0 hr 14 min 15 sec) 
Heartbeat CPU 0 instructions: 35000003 cycles: 13720663 heartbeat IPC: 2.55056 cumulative IPC: 2.5509 (Simulation time: 0 hr 14 min 43 sec) 
Heartbeat CPU 0 instructions: 36000000 cycles: 14112691 heartbeat IPC: 2.55083 cumulative IPC: 2.5509 (Simulation time: 0 hr 15 min 4 sec) 
Heartbeat CPU 0 instructions: 37000003 cycles: 14504671 heartbeat IPC: 2.55116 cumulative IPC: 2.5509 (Simulation time: 0 hr 15 min 28 sec) 
Heartbeat CPU 0 instructions: 38000002 cycles: 14896782 heartbeat IPC: 2.5503 cumulative IPC: 2.55089 (Simulation time: 0 hr 15 min 49 sec) 
Heartbeat CPU 0 instructions: 39000001 cycles: 15298309 heartbeat IPC: 2.49049 cumulative IPC: 2.5493 (Simulation time: 0 hr 16 min 14 sec) 
Heartbeat CPU 0 instructions: 40000000 cycles: 15690483 heartbeat IPC: 2.54989 cumulative IPC: 2.54932 (Simulation time: 0 hr 16 min 37 sec) 
Heartbeat CPU 0 instructions: 41000000 cycles: 16081601 heartbeat IPC: 2.55677 cumulative IPC: 2.5495 (Simulation time: 0 hr 16 min 58 sec) 
Heartbeat CPU 0 instructions: 42000000 cycles: 16472712 heartbeat IPC: 2.55682 cumulative IPC: 2.54967 (Simulation time: 0 hr 17 min 19 sec) 
Heartbeat CPU 0 instructions: 43000002 cycles: 16864003 heartbeat IPC: 2.55565 cumulative IPC: 2.54981 (Simulation time: 0 hr 17 min 44 sec) 
Heartbeat CPU 0 instructions: 44000000 cycles: 17260591 heartbeat IPC: 2.5215 cumulative IPC: 2.54916 (Simulation time: 0 hr 18 min 11 sec) 
Heartbeat CPU 0 instructions: 45000001 cycles: 17652359 heartbeat IPC: 2.55253 cumulative IPC: 2.54923 (Simulation time: 0 hr 18 min 36 sec) 
Heartbeat CPU 0 instructions: 46000003 cycles: 18046884 heartbeat IPC: 2.5347 cumulative IPC: 2.54892 (Simulation time: 0 hr 19 min 0 sec) 
Heartbeat CPU 0 instructions: 47000000 cycles: 18441267 heartbeat IPC: 2.5356 cumulative IPC: 2.54863 (Simulation time: 0 hr 19 min 26 sec) 
Heartbeat CPU 0 instructions: 48000000 cycles: 18834478 heartbeat IPC: 2.54316 cumulative IPC: 2.54852 (Simulation time: 0 hr 19 min 50 sec) 
Heartbeat CPU 0 instructions: 49000001 cycles: 19227973 heartbeat IPC: 2.54133 cumulative IPC: 2.54837 (Simulation time: 0 hr 20 min 14 sec) 
Heartbeat CPU 0 instructions: 50000003 cycles: 19618191 heartbeat IPC: 2.56268 cumulative IPC: 2.54866 (Simulation time: 0 hr 20 min 39 sec) 

Warmup complete CPU 0 instructions: 50000003 cycles: 19618191 (Simulation time: 0 hr 20 min 39 sec) 

Heartbeat CPU 0 instructions: 51000001 cycles: 20095079 heartbeat IPC: 2.09692 cumulative IPC: 2.09692 (Simulation time: 0 hr 21 min 5 sec) 
Heartbeat CPU 0 instructions: 52000000 cycles: 20527118 heartbeat IPC: 2.3146 cumulative IPC: 2.20039 (Simulation time: 0 hr 21 min 31 sec) 
Heartbeat CPU 0 instructions: 53000002 cycles: 21056967 heartbeat IPC: 1.88733 cumulative IPC: 2.0851 (Simulation time: 0 hr 22 min 1 sec) 
Heartbeat CPU 0 instructions: 54000002 cycles: 21847634 heartbeat IPC: 1.26475 cumulative IPC: 1.79417 (Simulation time: 0 hr 22 min 34 sec) 
Heartbeat CPU 0 instructions: 55000002 cycles: 22376723 heartbeat IPC: 1.89004 cumulative IPC: 1.81256 (Simulation time: 0 hr 23 min 2 sec) 
Heartbeat CPU 0 instructions: 56000000 cycles: 22857566 heartbeat IPC: 2.07968 cumulative IPC: 1.85221 (Simulation time: 0 hr 23 min 29 sec) 
Heartbeat CPU 0 instructions: 57000000 cycles: 23382566 heartbeat IPC: 1.90476 cumulative IPC: 1.85954 (Simulation time: 0 hr 23 min 55 sec) 
Heartbeat CPU 0 instructions: 58000003 cycles: 23824510 heartbeat IPC: 2.26274 cumulative IPC: 1.9019 (Simulation time: 0 hr 24 min 22 sec) 
Heartbeat CPU 0 instructions: 59000001 cycles: 24334929 heartbeat IPC: 1.95917 cumulative IPC: 1.9081 (Simulation time: 0 hr 24 min 51 sec) 
Heartbeat CPU 0 instructions: 60000000 cycles: 24781591 heartbeat IPC: 2.23883 cumulative IPC: 1.93671 (Simulation time: 0 hr 25 min 17 sec) 
Heartbeat CPU 0 instructions: 61000002 cycles: 25253913 heartbeat IPC: 2.1172 cumulative IPC: 1.95183 (Simulation time: 0 hr 25 min 44 sec) 
Heartbeat CPU 0 instructions: 62000003 cycles: 25769775 heartbeat IPC: 1.9385 cumulative IPC: 1.95072 (Simulation time: 0 hr 26 min 13 sec) 
Heartbeat CPU 0 instructions: 63000003 cycles: 26443418 heartbeat IPC: 1.48447 cumulative IPC: 1.9047 (Simulation time: 0 hr 26 min 45 sec) 
Heartbeat CPU 0 instructions: 64000000 cycles: 26931058 heartbeat IPC: 2.05069 cumulative IPC: 1.91443 (Simulation time: 0 hr 27 min 14 sec) 
Heartbeat CPU 0 instructions: 65000001 cycles: 27458794 heartbeat IPC: 1.89489 cumulative IPC: 1.91312 (Simulation time: 0 hr 27 min 41 sec) 
Heartbeat CPU 0 instructions: 66000001 cycles: 28108969 heartbeat IPC: 1.53805 cumulative IPC: 1.8844 (Simulation time: 0 hr 28 min 10 sec) 
Heartbeat CPU 0 instructions: 67000001 cycles: 28687460 heartbeat IPC: 1.72864 cumulative IPC: 1.87446 (Simulation time: 0 hr 28 min 36 sec) 
Heartbeat CPU 0 instructions: 68000000 cycles: 29227292 heartbeat IPC: 1.85243 cumulative IPC: 1.87322 (Simulation time: 0 hr 29 min 5 sec) 
Heartbeat CPU 0 instructions: 69000002 cycles: 29674421 heartbeat IPC: 2.2365 cumulative IPC: 1.88938 (Simulation time: 0 hr 29 min 30 sec) 
Heartbeat CPU 0 instructions: 70000002 cycles: 30125343 heartbeat IPC: 2.21768 cumulative IPC: 1.90347 (Simulation time: 0 hr 29 min 55 sec) 
Heartbeat CPU 0 instructions: 71000003 cycles: 30579727 heartbeat IPC: 2.20078 cumulative IPC: 1.91579 (Simulation time: 0 hr 30 min 23 sec) 
Heartbeat CPU 0 instructions: 72000000 cycles: 31029999 heartbeat IPC: 2.22087 cumulative IPC: 1.92783 (Simulation time: 0 hr 30 min 47 sec) 
Heartbeat CPU 0 instructions: 73000000 cycles: 31481294 heartbeat IPC: 2.21585 cumulative IPC: 1.93878 (Simulation time: 0 hr 31 min 15 sec) 
Heartbeat CPU 0 instructions: 74000000 cycles: 31931275 heartbeat IPC: 2.22232 cumulative IPC: 1.94915 (Simulation time: 0 hr 31 min 42 sec) 
Heartbeat CPU 0 instructions: 75000000 cycles: 32500822 heartbeat IPC: 1.75578 cumulative IPC: 1.9406 (Simulation time: 0 hr 32 min 9 sec) 
Heartbeat CPU 0 instructions: 76000000 cycles: 32962507 heartbeat IPC: 2.16598 cumulative IPC: 1.94839 (Simulation time: 0 hr 32 min 36 sec) 
Heartbeat CPU 0 instructions: 77000003 cycles: 33408671 heartbeat IPC: 2.24133 cumulative IPC: 1.95787 (Simulation time: 0 hr 33 min 1 sec) 
Heartbeat CPU 0 instructions: 78000002 cycles: 33855753 heartbeat IPC: 2.23672 cumulative IPC: 1.96663 (Simulation time: 0 hr 33 min 29 sec) 
Heartbeat CPU 0 instructions: 79000003 cycles: 34300129 heartbeat IPC: 2.25035 cumulative IPC: 1.97522 (Simulation time: 0 hr 33 min 56 sec) 
Heartbeat CPU 0 instructions: 80000000 cycles: 34744588 heartbeat IPC: 2.24992 cumulative IPC: 1.98329 (Simulation time: 0 hr 34 min 21 sec) 
Heartbeat CPU 0 instructions: 81000001 cycles: 35189583 heartbeat IPC: 2.24722 cumulative IPC: 1.99083 (Simulation time: 0 hr 34 min 45 sec) 
Heartbeat CPU 0 instructions: 82000001 cycles: 35634165 heartbeat IPC: 2.2493 cumulative IPC: 1.99801 (Simulation time: 0 hr 35 min 10 sec) 
Heartbeat CPU 0 instructions: 83000000 cycles: 36077214 heartbeat IPC: 2.25708 cumulative IPC: 2.00498 (Simulation time: 0 hr 35 min 35 sec) 
Heartbeat CPU 0 instructions: 84000000 cycles: 36590573 heartbeat IPC: 1.94795 cumulative IPC: 2.00325 (Simulation time: 0 hr 36 min 3 sec) 
Heartbeat CPU 0 instructions: 85000002 cycles: 37112973 heartbeat IPC: 1.91425 cumulative IPC: 2.0006 (Simulation time: 0 hr 36 min 33 sec) 
Heartbeat CPU 0 instructions: 86000001 cycles: 37805802 heartbeat IPC: 1.44336 cumulative IPC: 1.97937 (Simulation time: 0 hr 37 min 1 sec) 
Heartbeat CPU 0 instructions: 87000001 cycles: 38362532 heartbeat IPC: 1.7962 cumulative IPC: 1.97393 (Simulation time: 0 hr 37 min 28 sec) 
Heartbeat CPU 0 instructions: 88000000 cycles: 38801090 heartbeat IPC: 2.2802 cumulative IPC: 1.98093 (Simulation time: 0 hr 37 min 56 sec) 
Heartbeat CPU 0 instructions: 89000000 cycles: 39237017 heartbeat IPC: 2.29396 cumulative IPC: 1.98789 (Simulation time: 0 hr 38 min 22 sec) 
Heartbeat CPU 0 instructions: 90000001 cycles: 39673393 heartbeat IPC: 2.2916 cumulative IPC: 1.99449 (Simulation time: 0 hr 38 min 48 sec) 
Heartbeat CPU 0 instructions: 91000002 cycles: 40196422 heartbeat IPC: 1.91194 cumulative IPC: 1.9924 (Simulation time: 0 hr 39 min 16 sec) 
Heartbeat CPU 0 instructions: 92000000 cycles: 40656099 heartbeat IPC: 2.17544 cumulative IPC: 1.9964 (Simulation time: 0 hr 39 min 41 sec) 
Heartbeat CPU 0 instructions: 93000000 cycles: 41090594 heartbeat IPC: 2.30152 cumulative IPC: 2.00257 (Simulation time: 0 hr 40 min 7 sec) 
Heartbeat CPU 0 instructions: 94000001 cycles: 41522395 heartbeat IPC: 2.31588 cumulative IPC: 2.00875 (Simulation time: 0 hr 40 min 37 sec) 
Heartbeat CPU 0 instructions: 95000003 cycles: 42022600 heartbeat IPC: 1.99918 cumulative IPC: 2.00853 (Simulation time: 0 hr 41 min 7 sec) 
Heartbeat CPU 0 instructions: 96000000 cycles: 42451489 heartbeat IPC: 2.3316 cumulative IPC: 2.0146 (Simulation time: 0 hr 41 min 38 sec) 
Heartbeat CPU 0 instructions: 97000002 cycles: 42881940 heartbeat IPC: 2.32315 cumulative IPC: 2.02031 (Simulation time: 0 hr 42 min 5 sec) 
Heartbeat CPU 0 instructions: 98000000 cycles: 43310150 heartbeat IPC: 2.3353 cumulative IPC: 2.026 (Simulation time: 0 hr 42 min 31 sec) 
Heartbeat CPU 0 instructions: 99000001 cycles: 43818082 heartbeat IPC: 1.96877 cumulative IPC: 2.0248 (Simulation time: 0 hr 42 min 56 sec) 
Heartbeat CPU 0 instructions: 100000000 cycles: 44247875 heartbeat IPC: 2.3267 cumulative IPC: 2.03007 (Simulation time: 0 hr 43 min 20 sec) 
Heartbeat CPU 0 instructions: 101000001 cycles: 44675863 heartbeat IPC: 2.33652 cumulative IPC: 2.0353 (Simulation time: 0 hr 43 min 44 sec) 
Heartbeat CPU 0 instructions: 102000003 cycles: 45103549 heartbeat IPC: 2.33817 cumulative IPC: 2.04039 (Simulation time: 0 hr 44 min 14 sec) 
Heartbeat CPU 0 instructions: 103000003 cycles: 45599701 heartbeat IPC: 2.01551 cumulative IPC: 2.03991 (Simulation time: 0 hr 44 min 43 sec) 
Heartbeat CPU 0 instructions: 104000000 cycles: 46146642 heartbeat IPC: 1.82835 cumulative IPC: 2.03555 (Simulation time: 0 hr 45 min 10 sec) 
Heartbeat CPU 0 instructions: 105000001 cycles: 46565641 heartbeat IPC: 2.38664 cumulative IPC: 2.04101 (Simulation time: 0 hr 45 min 34 sec) 
Heartbeat CPU 0 instructions: 106000002 cycles: 47012248 heartbeat IPC: 2.23911 cumulative IPC: 2.04424 (Simulation time: 0 hr 45 min 58 sec) 
Heartbeat CPU 0 instructions: 107000001 cycles: 47464109 heartbeat IPC: 2.21307 cumulative IPC: 2.04698 (Simulation time: 0 hr 46 min 22 sec) 
Heartbeat CPU 0 instructions: 108000000 cycles: 47882926 heartbeat IPC: 2.38768 cumulative IPC: 2.05203 (Simulation time: 0 hr 46 min 46 sec) 
Heartbeat CPU 0 instructions: 109000000 cycles: 48360656 heartbeat IPC: 2.09323 cumulative IPC: 2.05271 (Simulation time: 0 hr 47 min 12 sec) 
Heartbeat CPU 0 instructions: 110000000 cycles: 48779367 heartbeat IPC: 2.38828 cumulative IPC: 2.05753 (Simulation time: 0 hr 47 min 37 sec) 
Heartbeat CPU 0 instructions: 111000001 cycles: 49198393 heartbeat IPC: 2.38649 cumulative IPC: 2.06219 (Simulation time: 0 hr 48 min 2 sec) 
Heartbeat CPU 0 instructions: 112000000 cycles: 49697341 heartbeat IPC: 2.00421 cumulative IPC: 2.06123 (Simulation time: 0 hr 48 min 31 sec) 
Heartbeat CPU 0 instructions: 113000003 cycles: 50138162 heartbeat IPC: 2.2685 cumulative IPC: 2.06422 (Simulation time: 0 hr 48 min 56 sec) 
Heartbeat CPU 0 instructions: 114000002 cycles: 50585840 heartbeat IPC: 2.23375 cumulative IPC: 2.06667 (Simulation time: 0 hr 49 min 24 sec) 
Heartbeat CPU 0 instructions: 115000000 cycles: 51039578 heartbeat IPC: 2.20391 cumulative IPC: 2.06865 (Simulation time: 0 hr 49 min 52 sec) 
Heartbeat CPU 0 instructions: 116000000 cycles: 51667150 heartbeat IPC: 1.59344 cumulative IPC: 2.05935 (Simulation time: 0 hr 50 min 18 sec) 
Heartbeat CPU 0 instructions: 117000001 cycles: 52223270 heartbeat IPC: 1.79817 cumulative IPC: 2.05489 (Simulation time: 0 hr 50 min 48 sec) 
Heartbeat CPU 0 instructions: 118000000 cycles: 52839033 heartbeat IPC: 1.624 cumulative IPC: 2.04691 (Simulation time: 0 hr 51 min 21 sec) 
Heartbeat CPU 0 instructions: 119000000 cycles: 53770399 heartbeat IPC: 1.07369 cumulative IPC: 2.02037 (Simulation time: 0 hr 52 min 0 sec) 
Heartbeat CPU 0 instructions: 120000000 cycles: 54503553 heartbeat IPC: 1.36397 cumulative IPC: 2.00657 (Simulation time: 0 hr 52 min 37 sec) 
Heartbeat CPU 0 instructions: 121000000 cycles: 55233967 heartbeat IPC: 1.36909 cumulative IPC: 1.9935 (Simulation time: 0 hr 53 min 12 sec) 
Heartbeat CPU 0 instructions: 122000000 cycles: 55972066 heartbeat IPC: 1.35483 cumulative IPC: 1.98053 (Simulation time: 0 hr 53 min 48 sec) 
Heartbeat CPU 0 instructions: 123000000 cycles: 56708505 heartbeat IPC: 1.35789 cumulative IPC: 1.96817 (Simulation time: 0 hr 54 min 25 sec) 
Heartbeat CPU 0 instructions: 124000000 cycles: 57441261 heartbeat IPC: 1.36471 cumulative IPC: 1.95648 (Simulation time: 0 hr 55 min 1 sec) 
Heartbeat CPU 0 instructions: 125000001 cycles: 58178008 heartbeat IPC: 1.35732 cumulative IPC: 1.94503 (Simulation time: 0 hr 55 min 39 sec) 
Heartbeat CPU 0 instructions: 126000000 cycles: 58909061 heartbeat IPC: 1.36789 cumulative IPC: 1.93429 (Simulation time: 0 hr 56 min 19 sec) 
Heartbeat CPU 0 instructions: 127000000 cycles: 59647824 heartbeat IPC: 1.35361 cumulative IPC: 1.92357 (Simulation time: 0 hr 56 min 55 sec) 
Heartbeat CPU 0 instructions: 128000000 cycles: 60382004 heartbeat IPC: 1.36206 cumulative IPC: 1.91346 (Simulation time: 0 hr 57 min 31 sec) 
Heartbeat CPU 0 instructions: 129000002 cycles: 61107106 heartbeat IPC: 1.37912 cumulative IPC: 1.90412 (Simulation time: 0 hr 58 min 8 sec) 
Heartbeat CPU 0 instructions: 130000001 cycles: 61831750 heartbeat IPC: 1.37999 cumulative IPC: 1.89513 (Simulation time: 0 hr 58 min 44 sec) 
Heartbeat CPU 0 instructions: 131000003 cycles: 62550767 heartbeat IPC: 1.39079 cumulative IPC: 1.88668 (Simulation time: 0 hr 59 min 21 sec) 
Heartbeat CPU 0 instructions: 132000000 cycles: 63260244 heartbeat IPC: 1.40948 cumulative IPC: 1.87892 (Simulation time: 0 hr 59 min 58 sec) 
Heartbeat CPU 0 instructions: 133000002 cycles: 63947720 heartbeat IPC: 1.4546 cumulative IPC: 1.87234 (Simulation time: 1 hr 0 min 33 sec) 
Heartbeat CPU 0 instructions: 134000001 cycles: 64588068 heartbeat IPC: 1.56165 cumulative IPC: 1.86792 (Simulation time: 1 hr 1 min 9 sec) 
Heartbeat CPU 0 instructions: 135000001 cycles: 65394051 heartbeat IPC: 1.24072 cumulative IPC: 1.85687 (Simulation time: 1 hr 1 min 44 sec) 
Heartbeat CPU 0 instructions: 136000000 cycles: 66088308 heartbeat IPC: 1.44039 cumulative IPC: 1.85065 (Simulation time: 1 hr 2 min 19 sec) 
Heartbeat CPU 0 instructions: 137000000 cycles: 66540693 heartbeat IPC: 2.21051 cumulative IPC: 1.85412 (Simulation time: 1 hr 2 min 51 sec) 
Heartbeat CPU 0 instructions: 138000000 cycles: 67002601 heartbeat IPC: 2.16493 cumulative IPC: 1.85715 (Simulation time: 1 hr 3 min 23 sec) 
Heartbeat CPU 0 instructions: 139000000 cycles: 67474835 heartbeat IPC: 2.11759 cumulative IPC: 1.85972 (Simulation time: 1 hr 3 min 55 sec) 
Heartbeat CPU 0 instructions: 140000000 cycles: 67905658 heartbeat IPC: 2.32114 cumulative IPC: 1.86384 (Simulation time: 1 hr 4 min 27 sec) 
Heartbeat CPU 0 instructions: 141000002 cycles: 68337092 heartbeat IPC: 2.31786 cumulative IPC: 1.86786 (Simulation time: 1 hr 4 min 56 sec) 
Heartbeat CPU 0 instructions: 142000002 cycles: 68767130 heartbeat IPC: 2.32538 cumulative IPC: 1.87186 (Simulation time: 1 hr 5 min 29 sec) 
Heartbeat CPU 0 instructions: 143000003 cycles: 69197254 heartbeat IPC: 2.32491 cumulative IPC: 1.87579 (Simulation time: 1 hr 6 min 0 sec) 
Heartbeat CPU 0 instructions: 144000000 cycles: 69627623 heartbeat IPC: 2.32358 cumulative IPC: 1.87965 (Simulation time: 1 hr 6 min 31 sec) 
Heartbeat CPU 0 instructions: 145000003 cycles: 70057889 heartbeat IPC: 2.32415 cumulative IPC: 1.88344 (Simulation time: 1 hr 7 min 6 sec) 
Heartbeat CPU 0 instructions: 146000002 cycles: 70487571 heartbeat IPC: 2.3273 cumulative IPC: 1.88719 (Simulation time: 1 hr 7 min 38 sec) 
Heartbeat CPU 0 instructions: 147000002 cycles: 70919454 heartbeat IPC: 2.31544 cumulative IPC: 1.89079 (Simulation time: 1 hr 8 min 14 sec) 
Heartbeat CPU 0 instructions: 148000000 cycles: 71350798 heartbeat IPC: 2.31833 cumulative IPC: 1.89436 (Simulation time: 1 hr 8 min 45 sec) 
Heartbeat CPU 0 instructions: 149000001 cycles: 71780957 heartbeat IPC: 2.32472 cumulative IPC: 1.89791 (Simulation time: 1 hr 9 min 16 sec) 
Heartbeat CPU 0 instructions: 150000000 cycles: 72212911 heartbeat IPC: 2.31506 cumulative IPC: 1.90133 (Simulation time: 1 hr 9 min 45 sec) 
Finished CPU 0 instructions: 100000001 cycles: 52594721 cummulative IPC: 1.90133 (Simulation time: 1 hr 9 min 45 sec) 

ChampSim completed all CPUs

Region of Interest Statistics

CPU 0 cummulative IPC: 1.90133 instructions: 100000001 cycles: 52594721
LLC TOTAL     ACCESS:    1290608  HIT:    1161831  MISS:     128777
LLC LOAD      ACCESS:     168240  HIT:     151862  MISS:      16378
LLC RFO       ACCESS:      32333  HIT:      20793  MISS:      11540
LLC PREFETCH  ACCESS:     713675  HIT:     613285  MISS:     100390
LLC WRITEBACK ACCESS:     376360  HIT:     375891  MISS:        469
OPTgen accesses: 4718
OPTgen hits: 11530
OPTgen hit rate: 244.383


