
*** ChampSim Multicore Out-of-Order Simulator ***

Warmup Instructions: 50000000
Simulation Instructions: 100000000
Configuration: 2
Number of CPUs: 1
LLC sets: 2048
LLC ways: 16
Off-chip DRAM Channels: 1 Width: 64-bit Data Rate: 1600 MT/s

CPU 0 runs /datasets/cs240c-wi22-a00-public/data/Assignment2-gz/milc_744B.trace.gz
CPU 0 L1D next line prefetcher
CPU 0 L2C IP-based stride prefetcher
Initialize Hawkeye state
Heartbeat CPU 0 instructions: 1000000 cycles: 383656 heartbeat IPC: 2.6065 cumulative IPC: 2.6065 (Simulation time: 0 hr 0 min 38 sec) 
Heartbeat CPU 0 instructions: 2000001 cycles: 767293 heartbeat IPC: 2.60663 cumulative IPC: 2.60657 (Simulation time: 0 hr 1 min 16 sec) 
Heartbeat CPU 0 instructions: 3000001 cycles: 1150974 heartbeat IPC: 2.60633 cumulative IPC: 2.60649 (Simulation time: 0 hr 1 min 54 sec) 
Heartbeat CPU 0 instructions: 4000000 cycles: 1534617 heartbeat IPC: 2.60659 cumulative IPC: 2.60651 (Simulation time: 0 hr 2 min 33 sec) 
Heartbeat CPU 0 instructions: 5000001 cycles: 1918298 heartbeat IPC: 2.60633 cumulative IPC: 2.60648 (Simulation time: 0 hr 3 min 11 sec) 
Heartbeat CPU 0 instructions: 6000002 cycles: 2301951 heartbeat IPC: 2.60652 cumulative IPC: 2.60649 (Simulation time: 0 hr 3 min 49 sec) 
Heartbeat CPU 0 instructions: 7000002 cycles: 2685605 heartbeat IPC: 2.60652 cumulative IPC: 2.60649 (Simulation time: 0 hr 4 min 25 sec) 
Heartbeat CPU 0 instructions: 8000000 cycles: 3069239 heartbeat IPC: 2.60665 cumulative IPC: 2.60651 (Simulation time: 0 hr 4 min 59 sec) 
Heartbeat CPU 0 instructions: 9000003 cycles: 3452946 heartbeat IPC: 2.60616 cumulative IPC: 2.60647 (Simulation time: 0 hr 5 min 35 sec) 
Heartbeat CPU 0 instructions: 10000002 cycles: 3836611 heartbeat IPC: 2.60644 cumulative IPC: 2.60647 (Simulation time: 0 hr 6 min 8 sec) 
Heartbeat CPU 0 instructions: 11000003 cycles: 4220269 heartbeat IPC: 2.60649 cumulative IPC: 2.60647 (Simulation time: 0 hr 6 min 43 sec) 
Heartbeat CPU 0 instructions: 12000000 cycles: 4603919 heartbeat IPC: 2.60653 cumulative IPC: 2.60648 (Simulation time: 0 hr 7 min 15 sec) 
Heartbeat CPU 0 instructions: 13000002 cycles: 4987595 heartbeat IPC: 2.60637 cumulative IPC: 2.60647 (Simulation time: 0 hr 7 min 50 sec) 
Heartbeat CPU 0 instructions: 14000001 cycles: 5371239 heartbeat IPC: 2.60658 cumulative IPC: 2.60648 (Simulation time: 0 hr 8 min 20 sec) 
Heartbeat CPU 0 instructions: 15000001 cycles: 5754911 heartbeat IPC: 2.60639 cumulative IPC: 2.60647 (Simulation time: 0 hr 8 min 58 sec) 
Heartbeat CPU 0 instructions: 16000000 cycles: 6138558 heartbeat IPC: 2.60656 cumulative IPC: 2.60648 (Simulation time: 0 hr 9 min 29 sec) 
Heartbeat CPU 0 instructions: 17000001 cycles: 6522213 heartbeat IPC: 2.60651 cumulative IPC: 2.60648 (Simulation time: 0 hr 10 min 5 sec) 
Heartbeat CPU 0 instructions: 18000003 cycles: 6905855 heartbeat IPC: 2.6066 cumulative IPC: 2.60648 (Simulation time: 0 hr 10 min 40 sec) 
Heartbeat CPU 0 instructions: 19000002 cycles: 7289496 heartbeat IPC: 2.6066 cumulative IPC: 2.60649 (Simulation time: 0 hr 11 min 14 sec) 
Heartbeat CPU 0 instructions: 20000000 cycles: 7673132 heartbeat IPC: 2.60663 cumulative IPC: 2.6065 (Simulation time: 0 hr 11 min 46 sec) 
Heartbeat CPU 0 instructions: 21000003 cycles: 8056837 heartbeat IPC: 2.60618 cumulative IPC: 2.60648 (Simulation time: 0 hr 12 min 16 sec) 
Heartbeat CPU 0 instructions: 22000002 cycles: 8440504 heartbeat IPC: 2.60642 cumulative IPC: 2.60648 (Simulation time: 0 hr 12 min 48 sec) 
Heartbeat CPU 0 instructions: 23000000 cycles: 8824165 heartbeat IPC: 2.60646 cumulative IPC: 2.60648 (Simulation time: 0 hr 13 min 20 sec) 
Heartbeat CPU 0 instructions: 24000000 cycles: 9207788 heartbeat IPC: 2.60673 cumulative IPC: 2.60649 (Simulation time: 0 hr 13 min 51 sec) 
Heartbeat CPU 0 instructions: 25000002 cycles: 9591463 heartbeat IPC: 2.60638 cumulative IPC: 2.60648 (Simulation time: 0 hr 14 min 25 sec) 
Heartbeat CPU 0 instructions: 26000001 cycles: 9975122 heartbeat IPC: 2.60648 cumulative IPC: 2.60648 (Simulation time: 0 hr 14 min 55 sec) 
Heartbeat CPU 0 instructions: 27000001 cycles: 10358818 heartbeat IPC: 2.60623 cumulative IPC: 2.60648 (Simulation time: 0 hr 15 min 26 sec) 
Heartbeat CPU 0 instructions: 28000000 cycles: 10742467 heartbeat IPC: 2.60655 cumulative IPC: 2.60648 (Simulation time: 0 hr 15 min 57 sec) 
Heartbeat CPU 0 instructions: 29000000 cycles: 11126140 heartbeat IPC: 2.60639 cumulative IPC: 2.60647 (Simulation time: 0 hr 16 min 28 sec) 
Heartbeat CPU 0 instructions: 30000003 cycles: 11509791 heartbeat IPC: 2.60654 cumulative IPC: 2.60648 (Simulation time: 0 hr 17 min 0 sec) 
Heartbeat CPU 0 instructions: 31000002 cycles: 11893424 heartbeat IPC: 2.60666 cumulative IPC: 2.60648 (Simulation time: 0 hr 17 min 31 sec) 
Heartbeat CPU 0 instructions: 32000000 cycles: 12277079 heartbeat IPC: 2.6065 cumulative IPC: 2.60648 (Simulation time: 0 hr 18 min 3 sec) 
Heartbeat CPU 0 instructions: 33000001 cycles: 12660737 heartbeat IPC: 2.60649 cumulative IPC: 2.60648 (Simulation time: 0 hr 18 min 35 sec) 
Heartbeat CPU 0 instructions: 34000002 cycles: 13044413 heartbeat IPC: 2.60637 cumulative IPC: 2.60648 (Simulation time: 0 hr 19 min 6 sec) 
Heartbeat CPU 0 instructions: 35000000 cycles: 13428051 heartbeat IPC: 2.60662 cumulative IPC: 2.60648 (Simulation time: 0 hr 19 min 37 sec) 
Heartbeat CPU 0 instructions: 36000000 cycles: 13811694 heartbeat IPC: 2.60659 cumulative IPC: 2.60649 (Simulation time: 0 hr 20 min 8 sec) 
Heartbeat CPU 0 instructions: 37000001 cycles: 14195360 heartbeat IPC: 2.60644 cumulative IPC: 2.60649 (Simulation time: 0 hr 20 min 41 sec) 
Heartbeat CPU 0 instructions: 38000000 cycles: 14579025 heartbeat IPC: 2.60644 cumulative IPC: 2.60648 (Simulation time: 0 hr 21 min 13 sec) 
Heartbeat CPU 0 instructions: 39000002 cycles: 14962680 heartbeat IPC: 2.60651 cumulative IPC: 2.60649 (Simulation time: 0 hr 21 min 46 sec) 
Heartbeat CPU 0 instructions: 40000000 cycles: 15346358 heartbeat IPC: 2.60635 cumulative IPC: 2.60648 (Simulation time: 0 hr 22 min 20 sec) 
Heartbeat CPU 0 instructions: 41000003 cycles: 15730024 heartbeat IPC: 2.60644 cumulative IPC: 2.60648 (Simulation time: 0 hr 22 min 54 sec) 
Heartbeat CPU 0 instructions: 42000002 cycles: 16113669 heartbeat IPC: 2.60657 cumulative IPC: 2.60648 (Simulation time: 0 hr 23 min 25 sec) 
Heartbeat CPU 0 instructions: 43000002 cycles: 16497335 heartbeat IPC: 2.60643 cumulative IPC: 2.60648 (Simulation time: 0 hr 23 min 58 sec) 
Heartbeat CPU 0 instructions: 44000000 cycles: 16880988 heartbeat IPC: 2.60652 cumulative IPC: 2.60648 (Simulation time: 0 hr 24 min 27 sec) 
Heartbeat CPU 0 instructions: 45000000 cycles: 17264648 heartbeat IPC: 2.60647 cumulative IPC: 2.60648 (Simulation time: 0 hr 24 min 57 sec) 
Heartbeat CPU 0 instructions: 46000002 cycles: 17648338 heartbeat IPC: 2.60628 cumulative IPC: 2.60648 (Simulation time: 0 hr 25 min 29 sec) 
Heartbeat CPU 0 instructions: 47000002 cycles: 18031991 heartbeat IPC: 2.60652 cumulative IPC: 2.60648 (Simulation time: 0 hr 26 min 2 sec) 
Heartbeat CPU 0 instructions: 48000000 cycles: 18415635 heartbeat IPC: 2.60658 cumulative IPC: 2.60648 (Simulation time: 0 hr 26 min 30 sec) 
Heartbeat CPU 0 instructions: 49000001 cycles: 18799298 heartbeat IPC: 2.60646 cumulative IPC: 2.60648 (Simulation time: 0 hr 27 min 0 sec) 
Heartbeat CPU 0 instructions: 50000000 cycles: 19182930 heartbeat IPC: 2.60666 cumulative IPC: 2.60648 (Simulation time: 0 hr 27 min 33 sec) 

Warmup complete CPU 0 instructions: 50000004 cycles: 19182931 (Simulation time: 0 hr 27 min 33 sec) 

Heartbeat CPU 0 instructions: 51000001 cycles: 20624476 heartbeat IPC: 0.6937 cumulative IPC: 0.693698 (Simulation time: 0 hr 28 min 10 sec) 
Heartbeat CPU 0 instructions: 52000000 cycles: 22054846 heartbeat IPC: 0.699119 cumulative IPC: 0.696398 (Simulation time: 0 hr 28 min 43 sec) 
Heartbeat CPU 0 instructions: 53000000 cycles: 23477689 heartbeat IPC: 0.702818 cumulative IPC: 0.698525 (Simulation time: 0 hr 29 min 16 sec) 
Heartbeat CPU 0 instructions: 54000001 cycles: 24896257 heartbeat IPC: 0.704937 cumulative IPC: 0.700117 (Simulation time: 0 hr 29 min 52 sec) 
Heartbeat CPU 0 instructions: 55000003 cycles: 26321747 heartbeat IPC: 0.701515 cumulative IPC: 0.700396 (Simulation time: 0 hr 30 min 27 sec) 
Heartbeat CPU 0 instructions: 56000000 cycles: 27748008 heartbeat IPC: 0.701132 cumulative IPC: 0.700519 (Simulation time: 0 hr 31 min 3 sec) 
Heartbeat CPU 0 instructions: 57000000 cycles: 29169665 heartbeat IPC: 0.703405 cumulative IPC: 0.700929 (Simulation time: 0 hr 31 min 36 sec) 
Heartbeat CPU 0 instructions: 58000000 cycles: 30587961 heartbeat IPC: 0.705071 cumulative IPC: 0.701445 (Simulation time: 0 hr 32 min 12 sec) 
Heartbeat CPU 0 instructions: 59000002 cycles: 32011899 heartbeat IPC: 0.702279 cumulative IPC: 0.701537 (Simulation time: 0 hr 32 min 45 sec) 
Heartbeat CPU 0 instructions: 60000000 cycles: 33424884 heartbeat IPC: 0.70772 cumulative IPC: 0.702151 (Simulation time: 0 hr 33 min 18 sec) 
Heartbeat CPU 0 instructions: 61000001 cycles: 34847890 heartbeat IPC: 0.702738 cumulative IPC: 0.702204 (Simulation time: 0 hr 33 min 52 sec) 
Heartbeat CPU 0 instructions: 62000003 cycles: 36276157 heartbeat IPC: 0.700151 cumulative IPC: 0.702032 (Simulation time: 0 hr 34 min 24 sec) 
Heartbeat CPU 0 instructions: 63000001 cycles: 37701538 heartbeat IPC: 0.701565 cumulative IPC: 0.701997 (Simulation time: 0 hr 34 min 56 sec) 
Heartbeat CPU 0 instructions: 64000000 cycles: 39123972 heartbeat IPC: 0.70302 cumulative IPC: 0.702069 (Simulation time: 0 hr 35 min 27 sec) 
Heartbeat CPU 0 instructions: 65000002 cycles: 40549750 heartbeat IPC: 0.701373 cumulative IPC: 0.702023 (Simulation time: 0 hr 36 min 2 sec) 
Heartbeat CPU 0 instructions: 66000001 cycles: 41971821 heartbeat IPC: 0.703199 cumulative IPC: 0.702096 (Simulation time: 0 hr 36 min 35 sec) 
Heartbeat CPU 0 instructions: 67000003 cycles: 43401053 heartbeat IPC: 0.699678 cumulative IPC: 0.701954 (Simulation time: 0 hr 37 min 9 sec) 
Heartbeat CPU 0 instructions: 68000000 cycles: 44833222 heartbeat IPC: 0.69824 cumulative IPC: 0.701746 (Simulation time: 0 hr 37 min 44 sec) 
Heartbeat CPU 0 instructions: 69000003 cycles: 46262856 heartbeat IPC: 0.699482 cumulative IPC: 0.701627 (Simulation time: 0 hr 38 min 18 sec) 
Heartbeat CPU 0 instructions: 70000002 cycles: 47684780 heartbeat IPC: 0.703272 cumulative IPC: 0.701709 (Simulation time: 0 hr 38 min 52 sec) 
Heartbeat CPU 0 instructions: 71000002 cycles: 49093138 heartbeat IPC: 0.710047 cumulative IPC: 0.702101 (Simulation time: 0 hr 39 min 24 sec) 
Heartbeat CPU 0 instructions: 72000000 cycles: 50514780 heartbeat IPC: 0.703411 cumulative IPC: 0.702161 (Simulation time: 0 hr 39 min 58 sec) 
Heartbeat CPU 0 instructions: 73000002 cycles: 51938257 heartbeat IPC: 0.702507 cumulative IPC: 0.702176 (Simulation time: 0 hr 40 min 36 sec) 
Heartbeat CPU 0 instructions: 74000002 cycles: 53358725 heartbeat IPC: 0.703993 cumulative IPC: 0.702251 (Simulation time: 0 hr 41 min 10 sec) 
Heartbeat CPU 0 instructions: 75000001 cycles: 54774550 heartbeat IPC: 0.706301 cumulative IPC: 0.702412 (Simulation time: 0 hr 41 min 47 sec) 
Heartbeat CPU 0 instructions: 76000000 cycles: 56199190 heartbeat IPC: 0.701931 cumulative IPC: 0.702394 (Simulation time: 0 hr 42 min 20 sec) 
Heartbeat CPU 0 instructions: 77000002 cycles: 57621396 heartbeat IPC: 0.703134 cumulative IPC: 0.702421 (Simulation time: 0 hr 42 min 53 sec) 
Heartbeat CPU 0 instructions: 78000000 cycles: 59043076 heartbeat IPC: 0.703392 cumulative IPC: 0.702456 (Simulation time: 0 hr 43 min 24 sec) 
Heartbeat CPU 0 instructions: 79000000 cycles: 60469353 heartbeat IPC: 0.701126 cumulative IPC: 0.70241 (Simulation time: 0 hr 43 min 59 sec) 
Heartbeat CPU 0 instructions: 80000000 cycles: 61892792 heartbeat IPC: 0.702524 cumulative IPC: 0.702414 (Simulation time: 0 hr 44 min 34 sec) 
Heartbeat CPU 0 instructions: 81000003 cycles: 63309051 heartbeat IPC: 0.706088 cumulative IPC: 0.702532 (Simulation time: 0 hr 45 min 7 sec) 
Heartbeat CPU 0 instructions: 82000003 cycles: 64730352 heartbeat IPC: 0.703581 cumulative IPC: 0.702564 (Simulation time: 0 hr 45 min 42 sec) 
Heartbeat CPU 0 instructions: 83000002 cycles: 66148417 heartbeat IPC: 0.705186 cumulative IPC: 0.702644 (Simulation time: 0 hr 46 min 14 sec) 
Heartbeat CPU 0 instructions: 84000000 cycles: 67569825 heartbeat IPC: 0.703526 cumulative IPC: 0.70267 (Simulation time: 0 hr 46 min 45 sec) 
Heartbeat CPU 0 instructions: 85000000 cycles: 68987815 heartbeat IPC: 0.705224 cumulative IPC: 0.702742 (Simulation time: 0 hr 47 min 16 sec) 
Heartbeat CPU 0 instructions: 86000001 cycles: 70401888 heartbeat IPC: 0.707178 cumulative IPC: 0.702865 (Simulation time: 0 hr 47 min 48 sec) 
Heartbeat CPU 0 instructions: 87000001 cycles: 71826326 heartbeat IPC: 0.702031 cumulative IPC: 0.702842 (Simulation time: 0 hr 48 min 19 sec) 
Heartbeat CPU 0 instructions: 88000000 cycles: 73249172 heartbeat IPC: 0.702816 cumulative IPC: 0.702841 (Simulation time: 0 hr 48 min 51 sec) 
Heartbeat CPU 0 instructions: 89000001 cycles: 74664524 heartbeat IPC: 0.706539 cumulative IPC: 0.702936 (Simulation time: 0 hr 49 min 22 sec) 
Heartbeat CPU 0 instructions: 90000000 cycles: 76086890 heartbeat IPC: 0.703053 cumulative IPC: 0.702939 (Simulation time: 0 hr 49 min 52 sec) 
Heartbeat CPU 0 instructions: 91000001 cycles: 77509892 heartbeat IPC: 0.70274 cumulative IPC: 0.702934 (Simulation time: 0 hr 50 min 24 sec) 
Heartbeat CPU 0 instructions: 92000000 cycles: 82013024 heartbeat IPC: 0.222067 cumulative IPC: 0.668469 (Simulation time: 0 hr 51 min 41 sec) 
Heartbeat CPU 0 instructions: 93000000 cycles: 86645024 heartbeat IPC: 0.215889 cumulative IPC: 0.637395 (Simulation time: 0 hr 53 min 0 sec) 
Heartbeat CPU 0 instructions: 94000000 cycles: 89810795 heartbeat IPC: 0.315879 cumulative IPC: 0.622984 (Simulation time: 0 hr 54 min 4 sec) 
Heartbeat CPU 0 instructions: 95000000 cycles: 91072313 heartbeat IPC: 0.792696 cumulative IPC: 0.625962 (Simulation time: 0 hr 54 min 52 sec) 
Heartbeat CPU 0 instructions: 96000000 cycles: 92407750 heartbeat IPC: 0.748819 cumulative IPC: 0.628202 (Simulation time: 0 hr 55 min 35 sec) 
Heartbeat CPU 0 instructions: 97000002 cycles: 93658173 heartbeat IPC: 0.799731 cumulative IPC: 0.631082 (Simulation time: 0 hr 56 min 16 sec) 
Heartbeat CPU 0 instructions: 98000003 cycles: 94900620 heartbeat IPC: 0.804864 cumulative IPC: 0.633934 (Simulation time: 0 hr 56 min 53 sec) 
Heartbeat CPU 0 instructions: 99000000 cycles: 96156554 heartbeat IPC: 0.796218 cumulative IPC: 0.636582 (Simulation time: 0 hr 57 min 30 sec) 
Heartbeat CPU 0 instructions: 100000000 cycles: 97407853 heartbeat IPC: 0.799169 cumulative IPC: 0.639182 (Simulation time: 0 hr 58 min 7 sec) 
Heartbeat CPU 0 instructions: 101000001 cycles: 98667791 heartbeat IPC: 0.793691 cumulative IPC: 0.641632 (Simulation time: 0 hr 58 min 42 sec) 
Heartbeat CPU 0 instructions: 102000000 cycles: 99929828 heartbeat IPC: 0.792369 cumulative IPC: 0.643988 (Simulation time: 0 hr 59 min 18 sec) 
Heartbeat CPU 0 instructions: 103000002 cycles: 101184458 heartbeat IPC: 0.797049 cumulative IPC: 0.646329 (Simulation time: 0 hr 59 min 54 sec) 
Heartbeat CPU 0 instructions: 104000000 cycles: 102440719 heartbeat IPC: 0.796011 cumulative IPC: 0.648588 (Simulation time: 1 hr 0 min 31 sec) 
Heartbeat CPU 0 instructions: 105000003 cycles: 103700981 heartbeat IPC: 0.793488 cumulative IPC: 0.650749 (Simulation time: 1 hr 1 min 13 sec) 
Heartbeat CPU 0 instructions: 106000002 cycles: 104959971 heartbeat IPC: 0.794287 cumulative IPC: 0.652855 (Simulation time: 1 hr 1 min 53 sec) 
Heartbeat CPU 0 instructions: 107000002 cycles: 106220514 heartbeat IPC: 0.793309 cumulative IPC: 0.654889 (Simulation time: 1 hr 2 min 33 sec) 
Heartbeat CPU 0 instructions: 108000000 cycles: 107483387 heartbeat IPC: 0.791844 cumulative IPC: 0.656848 (Simulation time: 1 hr 3 min 8 sec) 
Heartbeat CPU 0 instructions: 109000001 cycles: 108739472 heartbeat IPC: 0.796125 cumulative IPC: 0.658802 (Simulation time: 1 hr 3 min 44 sec) 
Heartbeat CPU 0 instructions: 110000001 cycles: 109998968 heartbeat IPC: 0.793968 cumulative IPC: 0.660676 (Simulation time: 1 hr 4 min 23 sec) 
Heartbeat CPU 0 instructions: 111000000 cycles: 111259367 heartbeat IPC: 0.793399 cumulative IPC: 0.662493 (Simulation time: 1 hr 4 min 57 sec) 
Heartbeat CPU 0 instructions: 112000000 cycles: 112518713 heartbeat IPC: 0.794063 cumulative IPC: 0.664268 (Simulation time: 1 hr 5 min 31 sec) 
Heartbeat CPU 0 instructions: 113000002 cycles: 113780020 heartbeat IPC: 0.79283 cumulative IPC: 0.665982 (Simulation time: 1 hr 6 min 7 sec) 
Heartbeat CPU 0 instructions: 114000000 cycles: 115030777 heartbeat IPC: 0.799514 cumulative IPC: 0.667725 (Simulation time: 1 hr 6 min 43 sec) 
Heartbeat CPU 0 instructions: 115000002 cycles: 116285718 heartbeat IPC: 0.796852 cumulative IPC: 0.669394 (Simulation time: 1 hr 7 min 19 sec) 
Heartbeat CPU 0 instructions: 116000000 cycles: 117542669 heartbeat IPC: 0.795574 cumulative IPC: 0.671006 (Simulation time: 1 hr 7 min 54 sec) 
Heartbeat CPU 0 instructions: 117000003 cycles: 118799001 heartbeat IPC: 0.79597 cumulative IPC: 0.672582 (Simulation time: 1 hr 8 min 31 sec) 
Heartbeat CPU 0 instructions: 118000000 cycles: 120060153 heartbeat IPC: 0.792923 cumulative IPC: 0.674087 (Simulation time: 1 hr 9 min 6 sec) 
Heartbeat CPU 0 instructions: 119000003 cycles: 121322449 heartbeat IPC: 0.79221 cumulative IPC: 0.675547 (Simulation time: 1 hr 9 min 39 sec) 
Heartbeat CPU 0 instructions: 120000000 cycles: 122582357 heartbeat IPC: 0.793706 cumulative IPC: 0.676986 (Simulation time: 1 hr 10 min 13 sec) 
Heartbeat CPU 0 instructions: 121000003 cycles: 123839234 heartbeat IPC: 0.795625 cumulative IPC: 0.678411 (Simulation time: 1 hr 10 min 47 sec) 
Heartbeat CPU 0 instructions: 122000001 cycles: 125094625 heartbeat IPC: 0.796563 cumulative IPC: 0.679812 (Simulation time: 1 hr 11 min 21 sec) 
Heartbeat CPU 0 instructions: 123000000 cycles: 126350088 heartbeat IPC: 0.796518 cumulative IPC: 0.681179 (Simulation time: 1 hr 11 min 54 sec) 
Heartbeat CPU 0 instructions: 124000000 cycles: 127605604 heartbeat IPC: 0.796485 cumulative IPC: 0.682514 (Simulation time: 1 hr 12 min 28 sec) 
Heartbeat CPU 0 instructions: 125000003 cycles: 128866856 heartbeat IPC: 0.792865 cumulative IPC: 0.683783 (Simulation time: 1 hr 13 min 2 sec) 
Heartbeat CPU 0 instructions: 126000000 cycles: 130122865 heartbeat IPC: 0.79617 cumulative IPC: 0.685055 (Simulation time: 1 hr 13 min 34 sec) 
Heartbeat CPU 0 instructions: 127000000 cycles: 131381468 heartbeat IPC: 0.794532 cumulative IPC: 0.686283 (Simulation time: 1 hr 14 min 7 sec) 
Heartbeat CPU 0 instructions: 128000000 cycles: 132637162 heartbeat IPC: 0.796372 cumulative IPC: 0.687502 (Simulation time: 1 hr 14 min 39 sec) 
Heartbeat CPU 0 instructions: 129000000 cycles: 133898140 heartbeat IPC: 0.793035 cumulative IPC: 0.688662 (Simulation time: 1 hr 15 min 12 sec) 
Heartbeat CPU 0 instructions: 130000002 cycles: 135155039 heartbeat IPC: 0.79561 cumulative IPC: 0.689821 (Simulation time: 1 hr 15 min 47 sec) 
Heartbeat CPU 0 instructions: 131000002 cycles: 136412650 heartbeat IPC: 0.795158 cumulative IPC: 0.690951 (Simulation time: 1 hr 16 min 21 sec) 
Heartbeat CPU 0 instructions: 132000000 cycles: 137671148 heartbeat IPC: 0.794596 cumulative IPC: 0.692052 (Simulation time: 1 hr 16 min 50 sec) 
Heartbeat CPU 0 instructions: 133000002 cycles: 138926921 heartbeat IPC: 0.796324 cumulative IPC: 0.693145 (Simulation time: 1 hr 17 min 22 sec) 
Heartbeat CPU 0 instructions: 134000002 cycles: 140184391 heartbeat IPC: 0.795248 cumulative IPC: 0.694206 (Simulation time: 1 hr 17 min 52 sec) 
Heartbeat CPU 0 instructions: 135000000 cycles: 141444540 heartbeat IPC: 0.793555 cumulative IPC: 0.69523 (Simulation time: 1 hr 18 min 22 sec) 
Heartbeat CPU 0 instructions: 136000000 cycles: 142701530 heartbeat IPC: 0.795551 cumulative IPC: 0.696251 (Simulation time: 1 hr 18 min 50 sec) 
Heartbeat CPU 0 instructions: 137000001 cycles: 143959087 heartbeat IPC: 0.795193 cumulative IPC: 0.697249 (Simulation time: 1 hr 19 min 18 sec) 
Heartbeat CPU 0 instructions: 138000003 cycles: 145225250 heartbeat IPC: 0.789789 cumulative IPC: 0.698178 (Simulation time: 1 hr 19 min 45 sec) 
Heartbeat CPU 0 instructions: 139000001 cycles: 146480113 heartbeat IPC: 0.796898 cumulative IPC: 0.699151 (Simulation time: 1 hr 20 min 11 sec) 
Heartbeat CPU 0 instructions: 140000000 cycles: 147740886 heartbeat IPC: 0.793163 cumulative IPC: 0.700073 (Simulation time: 1 hr 20 min 38 sec) 
Heartbeat CPU 0 instructions: 141000003 cycles: 149001323 heartbeat IPC: 0.793378 cumulative IPC: 0.700979 (Simulation time: 1 hr 21 min 3 sec) 
Heartbeat CPU 0 instructions: 142000001 cycles: 150260198 heartbeat IPC: 0.794358 cumulative IPC: 0.701876 (Simulation time: 1 hr 21 min 26 sec) 
Heartbeat CPU 0 instructions: 143000001 cycles: 151521388 heartbeat IPC: 0.792902 cumulative IPC: 0.702744 (Simulation time: 1 hr 21 min 50 sec) 
Heartbeat CPU 0 instructions: 144000000 cycles: 152774985 heartbeat IPC: 0.797704 cumulative IPC: 0.703635 (Simulation time: 1 hr 22 min 15 sec) 
Heartbeat CPU 0 instructions: 145000001 cycles: 154033407 heartbeat IPC: 0.794647 cumulative IPC: 0.704484 (Simulation time: 1 hr 22 min 38 sec) 
Heartbeat CPU 0 instructions: 146000003 cycles: 155292109 heartbeat IPC: 0.794471 cumulative IPC: 0.705316 (Simulation time: 1 hr 23 min 4 sec) 
Heartbeat CPU 0 instructions: 147000003 cycles: 156548276 heartbeat IPC: 0.796072 cumulative IPC: 0.706146 (Simulation time: 1 hr 23 min 27 sec) 
Heartbeat CPU 0 instructions: 148000000 cycles: 157808448 heartbeat IPC: 0.79354 cumulative IPC: 0.706941 (Simulation time: 1 hr 23 min 52 sec) 
Heartbeat CPU 0 instructions: 149000001 cycles: 159069727 heartbeat IPC: 0.792847 cumulative IPC: 0.707715 (Simulation time: 1 hr 24 min 16 sec) 
Heartbeat CPU 0 instructions: 150000003 cycles: 160329589 heartbeat IPC: 0.793739 cumulative IPC: 0.708483 (Simulation time: 1 hr 24 min 39 sec) 
Finished CPU 0 instructions: 100000003 cycles: 141146659 cummulative IPC: 0.708483 (Simulation time: 1 hr 24 min 39 sec) 

ChampSim completed all CPUs

Region of Interest Statistics

CPU 0 cummulative IPC: 0.708483 instructions: 100000003 cycles: 141146659
LLC TOTAL     ACCESS:    2853535  HIT:      65147  MISS:    2788388
LLC LOAD      ACCESS:     878662  HIT:        158  MISS:     878504
LLC RFO       ACCESS:     539880  HIT:       5013  MISS:     534867
LLC PREFETCH  ACCESS:     755010  HIT:       5999  MISS:     749011
LLC WRITEBACK ACCESS:     679983  HIT:      53977  MISS:     626006
OPTgen accesses: 25470
OPTgen hits: 276
OPTgen hit rate: 1.08363


