
*** ChampSim Multicore Out-of-Order Simulator ***

Warmup Instructions: 50000000
Simulation Instructions: 100000000
Configuration: 2
Number of CPUs: 1
LLC sets: 2048
LLC ways: 16
Off-chip DRAM Channels: 1 Width: 64-bit Data Rate: 1600 MT/s

CPU 0 runs /datasets/cs240c-wi22-a00-public/data/Assignment2-gz/lbm_94B.trace.gz
CPU 0 L1D next line prefetcher
CPU 0 L2C IP-based stride prefetcher
Initialize Hawkeye state
Heartbeat CPU 0 instructions: 1000000 cycles: 422068 heartbeat IPC: 2.36929 cumulative IPC: 2.36929 (Simulation time: 0 hr 0 min 37 sec) 
Heartbeat CPU 0 instructions: 2000000 cycles: 812399 heartbeat IPC: 2.56193 cumulative IPC: 2.46184 (Simulation time: 0 hr 1 min 14 sec) 
Heartbeat CPU 0 instructions: 3000000 cycles: 1211539 heartbeat IPC: 2.50539 cumulative IPC: 2.47619 (Simulation time: 0 hr 1 min 49 sec) 
Heartbeat CPU 0 instructions: 4000000 cycles: 1631528 heartbeat IPC: 2.38101 cumulative IPC: 2.45169 (Simulation time: 0 hr 2 min 28 sec) 
Heartbeat CPU 0 instructions: 5000001 cycles: 2021787 heartbeat IPC: 2.5624 cumulative IPC: 2.47306 (Simulation time: 0 hr 3 min 7 sec) 
Heartbeat CPU 0 instructions: 6000000 cycles: 2422466 heartbeat IPC: 2.49576 cumulative IPC: 2.47681 (Simulation time: 0 hr 3 min 43 sec) 
Heartbeat CPU 0 instructions: 7000001 cycles: 2840598 heartbeat IPC: 2.39159 cumulative IPC: 2.46427 (Simulation time: 0 hr 4 min 19 sec) 
Heartbeat CPU 0 instructions: 8000000 cycles: 3230808 heartbeat IPC: 2.56272 cumulative IPC: 2.47616 (Simulation time: 0 hr 4 min 52 sec) 
Heartbeat CPU 0 instructions: 9000003 cycles: 3631834 heartbeat IPC: 2.49361 cumulative IPC: 2.47809 (Simulation time: 0 hr 5 min 26 sec) 
Heartbeat CPU 0 instructions: 10000000 cycles: 4048406 heartbeat IPC: 2.40054 cumulative IPC: 2.47011 (Simulation time: 0 hr 6 min 1 sec) 
Heartbeat CPU 0 instructions: 11000003 cycles: 4438595 heartbeat IPC: 2.56287 cumulative IPC: 2.47826 (Simulation time: 0 hr 6 min 32 sec) 
Heartbeat CPU 0 instructions: 12000000 cycles: 4839136 heartbeat IPC: 2.49662 cumulative IPC: 2.47978 (Simulation time: 0 hr 7 min 4 sec) 
Heartbeat CPU 0 instructions: 13000000 cycles: 5254528 heartbeat IPC: 2.40736 cumulative IPC: 2.47406 (Simulation time: 0 hr 7 min 43 sec) 
Heartbeat CPU 0 instructions: 14000003 cycles: 5644781 heartbeat IPC: 2.56245 cumulative IPC: 2.48017 (Simulation time: 0 hr 8 min 13 sec) 
Heartbeat CPU 0 instructions: 15000001 cycles: 6045167 heartbeat IPC: 2.49758 cumulative IPC: 2.48132 (Simulation time: 0 hr 8 min 46 sec) 
Heartbeat CPU 0 instructions: 16000000 cycles: 6459561 heartbeat IPC: 2.41316 cumulative IPC: 2.47695 (Simulation time: 0 hr 9 min 19 sec) 
Heartbeat CPU 0 instructions: 17000001 cycles: 6849809 heartbeat IPC: 2.56248 cumulative IPC: 2.48182 (Simulation time: 0 hr 9 min 53 sec) 
Heartbeat CPU 0 instructions: 18000001 cycles: 7248671 heartbeat IPC: 2.50713 cumulative IPC: 2.48321 (Simulation time: 0 hr 10 min 28 sec) 
Heartbeat CPU 0 instructions: 19000000 cycles: 7663216 heartbeat IPC: 2.41228 cumulative IPC: 2.47938 (Simulation time: 0 hr 11 min 4 sec) 
Heartbeat CPU 0 instructions: 20000000 cycles: 8053488 heartbeat IPC: 2.56232 cumulative IPC: 2.4834 (Simulation time: 0 hr 11 min 39 sec) 
Heartbeat CPU 0 instructions: 21000003 cycles: 8451571 heartbeat IPC: 2.51205 cumulative IPC: 2.48475 (Simulation time: 0 hr 12 min 11 sec) 
Heartbeat CPU 0 instructions: 22000000 cycles: 8865752 heartbeat IPC: 2.4144 cumulative IPC: 2.48146 (Simulation time: 0 hr 12 min 42 sec) 
Heartbeat CPU 0 instructions: 23000000 cycles: 9255920 heartbeat IPC: 2.563 cumulative IPC: 2.4849 (Simulation time: 0 hr 13 min 10 sec) 
Heartbeat CPU 0 instructions: 24000000 cycles: 9651983 heartbeat IPC: 2.52485 cumulative IPC: 2.48654 (Simulation time: 0 hr 13 min 40 sec) 
Heartbeat CPU 0 instructions: 25000000 cycles: 10065644 heartbeat IPC: 2.41744 cumulative IPC: 2.4837 (Simulation time: 0 hr 14 min 12 sec) 
Heartbeat CPU 0 instructions: 26000003 cycles: 10455888 heartbeat IPC: 2.56251 cumulative IPC: 2.48664 (Simulation time: 0 hr 14 min 42 sec) 
Heartbeat CPU 0 instructions: 27000002 cycles: 10850945 heartbeat IPC: 2.53128 cumulative IPC: 2.48826 (Simulation time: 0 hr 15 min 14 sec) 
Heartbeat CPU 0 instructions: 28000000 cycles: 11264385 heartbeat IPC: 2.41873 cumulative IPC: 2.48571 (Simulation time: 0 hr 15 min 46 sec) 
Heartbeat CPU 0 instructions: 29000000 cycles: 11654569 heartbeat IPC: 2.56289 cumulative IPC: 2.48829 (Simulation time: 0 hr 16 min 15 sec) 
Heartbeat CPU 0 instructions: 30000000 cycles: 12049619 heartbeat IPC: 2.53133 cumulative IPC: 2.48971 (Simulation time: 0 hr 16 min 46 sec) 
Heartbeat CPU 0 instructions: 31000003 cycles: 12460553 heartbeat IPC: 2.43349 cumulative IPC: 2.48785 (Simulation time: 0 hr 17 min 17 sec) 
Heartbeat CPU 0 instructions: 32000000 cycles: 12850836 heartbeat IPC: 2.56224 cumulative IPC: 2.49011 (Simulation time: 0 hr 17 min 48 sec) 
Heartbeat CPU 0 instructions: 33000002 cycles: 13245958 heartbeat IPC: 2.53087 cumulative IPC: 2.49133 (Simulation time: 0 hr 18 min 24 sec) 
Heartbeat CPU 0 instructions: 34000003 cycles: 13653500 heartbeat IPC: 2.45374 cumulative IPC: 2.4902 (Simulation time: 0 hr 19 min 1 sec) 
Heartbeat CPU 0 instructions: 35000002 cycles: 14045165 heartbeat IPC: 2.5532 cumulative IPC: 2.49196 (Simulation time: 0 hr 19 min 31 sec) 
Heartbeat CPU 0 instructions: 36000000 cycles: 14440188 heartbeat IPC: 2.53149 cumulative IPC: 2.49304 (Simulation time: 0 hr 20 min 4 sec) 
Heartbeat CPU 0 instructions: 37000003 cycles: 14842401 heartbeat IPC: 2.48625 cumulative IPC: 2.49286 (Simulation time: 0 hr 20 min 37 sec) 
Heartbeat CPU 0 instructions: 38000002 cycles: 15236923 heartbeat IPC: 2.53471 cumulative IPC: 2.49394 (Simulation time: 0 hr 21 min 7 sec) 
Heartbeat CPU 0 instructions: 39000000 cycles: 15627135 heartbeat IPC: 2.5627 cumulative IPC: 2.49566 (Simulation time: 0 hr 21 min 37 sec) 
Heartbeat CPU 0 instructions: 40000000 cycles: 16027448 heartbeat IPC: 2.49805 cumulative IPC: 2.49572 (Simulation time: 0 hr 22 min 7 sec) 
Heartbeat CPU 0 instructions: 41000003 cycles: 16426116 heartbeat IPC: 2.50836 cumulative IPC: 2.49603 (Simulation time: 0 hr 22 min 43 sec) 
Heartbeat CPU 0 instructions: 42000003 cycles: 16816352 heartbeat IPC: 2.56255 cumulative IPC: 2.49757 (Simulation time: 0 hr 23 min 14 sec) 
Heartbeat CPU 0 instructions: 43000003 cycles: 17211605 heartbeat IPC: 2.53003 cumulative IPC: 2.49831 (Simulation time: 0 hr 23 min 44 sec) 
Heartbeat CPU 0 instructions: 44000000 cycles: 17612576 heartbeat IPC: 2.49394 cumulative IPC: 2.49821 (Simulation time: 0 hr 24 min 13 sec) 
Heartbeat CPU 0 instructions: 45000002 cycles: 18002833 heartbeat IPC: 2.56242 cumulative IPC: 2.49961 (Simulation time: 0 hr 24 min 41 sec) 
Heartbeat CPU 0 instructions: 46000001 cycles: 18397984 heartbeat IPC: 2.53068 cumulative IPC: 2.50027 (Simulation time: 0 hr 25 min 13 sec) 
Heartbeat CPU 0 instructions: 47000003 cycles: 18796389 heartbeat IPC: 2.51001 cumulative IPC: 2.50048 (Simulation time: 0 hr 25 min 46 sec) 
Heartbeat CPU 0 instructions: 48000000 cycles: 19186536 heartbeat IPC: 2.56313 cumulative IPC: 2.50175 (Simulation time: 0 hr 26 min 21 sec) 
Heartbeat CPU 0 instructions: 49000000 cycles: 19581614 heartbeat IPC: 2.53115 cumulative IPC: 2.50235 (Simulation time: 0 hr 26 min 54 sec) 
Heartbeat CPU 0 instructions: 50000003 cycles: 19975904 heartbeat IPC: 2.53621 cumulative IPC: 2.50302 (Simulation time: 0 hr 27 min 27 sec) 

Warmup complete CPU 0 instructions: 50000003 cycles: 19975904 (Simulation time: 0 hr 27 min 27 sec) 

Heartbeat CPU 0 instructions: 51000003 cycles: 21380175 heartbeat IPC: 0.712113 cumulative IPC: 0.712113 (Simulation time: 0 hr 28 min 2 sec) 
Heartbeat CPU 0 instructions: 52000000 cycles: 22851718 heartbeat IPC: 0.679557 cumulative IPC: 0.695454 (Simulation time: 0 hr 28 min 38 sec) 
Heartbeat CPU 0 instructions: 53000001 cycles: 24329667 heartbeat IPC: 0.676614 cumulative IPC: 0.689059 (Simulation time: 0 hr 29 min 14 sec) 
Heartbeat CPU 0 instructions: 54000000 cycles: 25739789 heartbeat IPC: 0.709158 cumulative IPC: 0.693976 (Simulation time: 0 hr 29 min 47 sec) 
Heartbeat CPU 0 instructions: 55000003 cycles: 27132969 heartbeat IPC: 0.717784 cumulative IPC: 0.69861 (Simulation time: 0 hr 30 min 27 sec) 
Heartbeat CPU 0 instructions: 56000000 cycles: 28596246 heartbeat IPC: 0.683396 cumulative IPC: 0.696028 (Simulation time: 0 hr 31 min 5 sec) 
Heartbeat CPU 0 instructions: 57000003 cycles: 30053797 heartbeat IPC: 0.686084 cumulative IPC: 0.69459 (Simulation time: 0 hr 31 min 40 sec) 
Heartbeat CPU 0 instructions: 58000003 cycles: 31525963 heartbeat IPC: 0.679271 cumulative IPC: 0.692637 (Simulation time: 0 hr 32 min 18 sec) 
Heartbeat CPU 0 instructions: 59000002 cycles: 33025851 heartbeat IPC: 0.666716 cumulative IPC: 0.689658 (Simulation time: 0 hr 32 min 53 sec) 
Heartbeat CPU 0 instructions: 60000000 cycles: 34445793 heartbeat IPC: 0.704253 cumulative IPC: 0.69109 (Simulation time: 0 hr 33 min 31 sec) 
Heartbeat CPU 0 instructions: 61000000 cycles: 35838760 heartbeat IPC: 0.717892 cumulative IPC: 0.693444 (Simulation time: 0 hr 34 min 9 sec) 
Heartbeat CPU 0 instructions: 62000000 cycles: 37216589 heartbeat IPC: 0.725779 cumulative IPC: 0.696028 (Simulation time: 0 hr 34 min 44 sec) 
Heartbeat CPU 0 instructions: 63000001 cycles: 38682590 heartbeat IPC: 0.682128 cumulative IPC: 0.694939 (Simulation time: 0 hr 35 min 19 sec) 
Heartbeat CPU 0 instructions: 64000000 cycles: 40117124 heartbeat IPC: 0.69709 cumulative IPC: 0.695092 (Simulation time: 0 hr 35 min 54 sec) 
Heartbeat CPU 0 instructions: 65000003 cycles: 41517570 heartbeat IPC: 0.71406 cumulative IPC: 0.696325 (Simulation time: 0 hr 36 min 30 sec) 
Heartbeat CPU 0 instructions: 66000002 cycles: 42954323 heartbeat IPC: 0.696013 cumulative IPC: 0.696305 (Simulation time: 0 hr 37 min 7 sec) 
Heartbeat CPU 0 instructions: 67000002 cycles: 44386167 heartbeat IPC: 0.6984 cumulative IPC: 0.696428 (Simulation time: 0 hr 37 min 44 sec) 
Heartbeat CPU 0 instructions: 68000000 cycles: 45793553 heartbeat IPC: 0.710536 cumulative IPC: 0.697197 (Simulation time: 0 hr 38 min 20 sec) 
Heartbeat CPU 0 instructions: 69000000 cycles: 47221812 heartbeat IPC: 0.700153 cumulative IPC: 0.697352 (Simulation time: 0 hr 38 min 57 sec) 
Heartbeat CPU 0 instructions: 70000001 cycles: 48613346 heartbeat IPC: 0.718632 cumulative IPC: 0.698386 (Simulation time: 0 hr 39 min 34 sec) 
Heartbeat CPU 0 instructions: 71000001 cycles: 49979161 heartbeat IPC: 0.732164 cumulative IPC: 0.699924 (Simulation time: 0 hr 40 min 6 sec) 
Heartbeat CPU 0 instructions: 72000000 cycles: 51384071 heartbeat IPC: 0.711789 cumulative IPC: 0.700455 (Simulation time: 0 hr 40 min 44 sec) 
Heartbeat CPU 0 instructions: 73000001 cycles: 52890744 heartbeat IPC: 0.663715 cumulative IPC: 0.698773 (Simulation time: 0 hr 41 min 23 sec) 
Heartbeat CPU 0 instructions: 74000001 cycles: 54327504 heartbeat IPC: 0.69601 cumulative IPC: 0.698657 (Simulation time: 0 hr 42 min 4 sec) 
Heartbeat CPU 0 instructions: 75000003 cycles: 55738829 heartbeat IPC: 0.708555 cumulative IPC: 0.699048 (Simulation time: 0 hr 42 min 36 sec) 
Heartbeat CPU 0 instructions: 76000000 cycles: 57227661 heartbeat IPC: 0.671665 cumulative IPC: 0.697954 (Simulation time: 0 hr 43 min 12 sec) 
Heartbeat CPU 0 instructions: 77000002 cycles: 58619668 heartbeat IPC: 0.718389 cumulative IPC: 0.69869 (Simulation time: 0 hr 43 min 49 sec) 
Heartbeat CPU 0 instructions: 78000003 cycles: 60012682 heartbeat IPC: 0.717869 cumulative IPC: 0.699357 (Simulation time: 0 hr 44 min 22 sec) 
Heartbeat CPU 0 instructions: 79000000 cycles: 61437262 heartbeat IPC: 0.701959 cumulative IPC: 0.699446 (Simulation time: 0 hr 44 min 57 sec) 
Heartbeat CPU 0 instructions: 80000000 cycles: 62929552 heartbeat IPC: 0.670111 cumulative IPC: 0.698427 (Simulation time: 0 hr 45 min 38 sec) 
Heartbeat CPU 0 instructions: 81000000 cycles: 64377085 heartbeat IPC: 0.690831 cumulative IPC: 0.69818 (Simulation time: 0 hr 46 min 13 sec) 
Heartbeat CPU 0 instructions: 82000000 cycles: 65833599 heartbeat IPC: 0.686571 cumulative IPC: 0.697811 (Simulation time: 0 hr 46 min 48 sec) 
Heartbeat CPU 0 instructions: 83000003 cycles: 67292775 heartbeat IPC: 0.68532 cumulative IPC: 0.697426 (Simulation time: 0 hr 47 min 21 sec) 
Heartbeat CPU 0 instructions: 84000000 cycles: 68633749 heartbeat IPC: 0.745724 cumulative IPC: 0.698757 (Simulation time: 0 hr 47 min 54 sec) 
Heartbeat CPU 0 instructions: 85000001 cycles: 70003050 heartbeat IPC: 0.7303 cumulative IPC: 0.69962 (Simulation time: 0 hr 48 min 31 sec) 
Heartbeat CPU 0 instructions: 86000003 cycles: 71474657 heartbeat IPC: 0.679531 cumulative IPC: 0.699046 (Simulation time: 0 hr 49 min 6 sec) 
Heartbeat CPU 0 instructions: 87000000 cycles: 72886240 heartbeat IPC: 0.708422 cumulative IPC: 0.699296 (Simulation time: 0 hr 49 min 43 sec) 
Heartbeat CPU 0 instructions: 88000000 cycles: 74294438 heartbeat IPC: 0.710127 cumulative IPC: 0.699577 (Simulation time: 0 hr 50 min 16 sec) 
Heartbeat CPU 0 instructions: 89000003 cycles: 75674374 heartbeat IPC: 0.724673 cumulative IPC: 0.700199 (Simulation time: 0 hr 50 min 54 sec) 
Heartbeat CPU 0 instructions: 90000003 cycles: 77130038 heartbeat IPC: 0.686972 cumulative IPC: 0.699862 (Simulation time: 0 hr 51 min 33 sec) 
Heartbeat CPU 0 instructions: 91000002 cycles: 78601783 heartbeat IPC: 0.679465 cumulative IPC: 0.69935 (Simulation time: 0 hr 52 min 14 sec) 
Heartbeat CPU 0 instructions: 92000000 cycles: 79987175 heartbeat IPC: 0.721816 cumulative IPC: 0.699869 (Simulation time: 0 hr 52 min 52 sec) 
Heartbeat CPU 0 instructions: 93000003 cycles: 81423226 heartbeat IPC: 0.696356 cumulative IPC: 0.699786 (Simulation time: 0 hr 53 min 32 sec) 
Heartbeat CPU 0 instructions: 94000001 cycles: 82798574 heartbeat IPC: 0.727087 cumulative IPC: 0.700384 (Simulation time: 0 hr 54 min 13 sec) 
Heartbeat CPU 0 instructions: 95000001 cycles: 84227256 heartbeat IPC: 0.699946 cumulative IPC: 0.700374 (Simulation time: 0 hr 54 min 54 sec) 
Heartbeat CPU 0 instructions: 96000000 cycles: 85692663 heartbeat IPC: 0.682404 cumulative IPC: 0.699974 (Simulation time: 0 hr 55 min 35 sec) 
Heartbeat CPU 0 instructions: 97000000 cycles: 87170879 heartbeat IPC: 0.676491 cumulative IPC: 0.699457 (Simulation time: 0 hr 56 min 14 sec) 
Heartbeat CPU 0 instructions: 98000002 cycles: 88582279 heartbeat IPC: 0.708518 cumulative IPC: 0.699643 (Simulation time: 0 hr 56 min 54 sec) 
Heartbeat CPU 0 instructions: 99000001 cycles: 89964138 heartbeat IPC: 0.723662 cumulative IPC: 0.700118 (Simulation time: 0 hr 57 min 35 sec) 
Heartbeat CPU 0 instructions: 100000000 cycles: 91406588 heartbeat IPC: 0.693264 cumulative IPC: 0.699979 (Simulation time: 0 hr 58 min 15 sec) 
Heartbeat CPU 0 instructions: 101000003 cycles: 92788114 heartbeat IPC: 0.723839 cumulative IPC: 0.700432 (Simulation time: 0 hr 58 min 53 sec) 
Heartbeat CPU 0 instructions: 102000002 cycles: 94144916 heartbeat IPC: 0.737026 cumulative IPC: 0.701101 (Simulation time: 0 hr 59 min 31 sec) 
Heartbeat CPU 0 instructions: 103000000 cycles: 95634370 heartbeat IPC: 0.671386 cumulative IPC: 0.700516 (Simulation time: 1 hr 0 min 11 sec) 
Heartbeat CPU 0 instructions: 104000000 cycles: 97079084 heartbeat IPC: 0.692179 cumulative IPC: 0.70036 (Simulation time: 1 hr 0 min 53 sec) 
Heartbeat CPU 0 instructions: 105000002 cycles: 98506223 heartbeat IPC: 0.700704 cumulative IPC: 0.700366 (Simulation time: 1 hr 1 min 32 sec) 
Heartbeat CPU 0 instructions: 106000001 cycles: 99868468 heartbeat IPC: 0.734082 cumulative IPC: 0.700941 (Simulation time: 1 hr 2 min 14 sec) 
Heartbeat CPU 0 instructions: 107000000 cycles: 101348253 heartbeat IPC: 0.675773 cumulative IPC: 0.700484 (Simulation time: 1 hr 2 min 57 sec) 
Heartbeat CPU 0 instructions: 108000000 cycles: 102811564 heartbeat IPC: 0.683382 cumulative IPC: 0.700181 (Simulation time: 1 hr 3 min 40 sec) 
Heartbeat CPU 0 instructions: 109000002 cycles: 104215804 heartbeat IPC: 0.71213 cumulative IPC: 0.700381 (Simulation time: 1 hr 4 min 24 sec) 
Heartbeat CPU 0 instructions: 110000000 cycles: 105622838 heartbeat IPC: 0.710713 cumulative IPC: 0.70055 (Simulation time: 1 hr 5 min 11 sec) 
Heartbeat CPU 0 instructions: 111000003 cycles: 106968127 heartbeat IPC: 0.743337 cumulative IPC: 0.701212 (Simulation time: 1 hr 6 min 4 sec) 
Heartbeat CPU 0 instructions: 112000000 cycles: 108403594 heartbeat IPC: 0.696635 cumulative IPC: 0.701138 (Simulation time: 1 hr 6 min 57 sec) 
Heartbeat CPU 0 instructions: 113000001 cycles: 109891483 heartbeat IPC: 0.672094 cumulative IPC: 0.700657 (Simulation time: 1 hr 7 min 48 sec) 
Heartbeat CPU 0 instructions: 114000003 cycles: 111335520 heartbeat IPC: 0.692504 cumulative IPC: 0.700528 (Simulation time: 1 hr 8 min 41 sec) 
Heartbeat CPU 0 instructions: 115000003 cycles: 112772911 heartbeat IPC: 0.695705 cumulative IPC: 0.700454 (Simulation time: 1 hr 9 min 37 sec) 
Heartbeat CPU 0 instructions: 116000000 cycles: 114121153 heartbeat IPC: 0.741704 cumulative IPC: 0.701044 (Simulation time: 1 hr 10 min 28 sec) 
Heartbeat CPU 0 instructions: 117000003 cycles: 115534439 heartbeat IPC: 0.707573 cumulative IPC: 0.701141 (Simulation time: 1 hr 11 min 23 sec) 
Heartbeat CPU 0 instructions: 118000003 cycles: 116947282 heartbeat IPC: 0.707793 cumulative IPC: 0.701238 (Simulation time: 1 hr 12 min 16 sec) 
Heartbeat CPU 0 instructions: 119000000 cycles: 118393610 heartbeat IPC: 0.691404 cumulative IPC: 0.701093 (Simulation time: 1 hr 13 min 5 sec) 
Heartbeat CPU 0 instructions: 120000000 cycles: 119856714 heartbeat IPC: 0.683478 cumulative IPC: 0.700835 (Simulation time: 1 hr 13 min 53 sec) 
Heartbeat CPU 0 instructions: 121000002 cycles: 121227847 heartbeat IPC: 0.729325 cumulative IPC: 0.701221 (Simulation time: 1 hr 14 min 44 sec) 
Heartbeat CPU 0 instructions: 122000003 cycles: 122640588 heartbeat IPC: 0.707845 cumulative IPC: 0.701312 (Simulation time: 1 hr 15 min 34 sec) 
Heartbeat CPU 0 instructions: 123000002 cycles: 124094240 heartbeat IPC: 0.687922 cumulative IPC: 0.701125 (Simulation time: 1 hr 16 min 24 sec) 
Heartbeat CPU 0 instructions: 124000000 cycles: 125546707 heartbeat IPC: 0.688482 cumulative IPC: 0.700951 (Simulation time: 1 hr 17 min 10 sec) 
Heartbeat CPU 0 instructions: 125000001 cycles: 126921851 heartbeat IPC: 0.727197 cumulative IPC: 0.701289 (Simulation time: 1 hr 17 min 57 sec) 
Heartbeat CPU 0 instructions: 126000003 cycles: 128309236 heartbeat IPC: 0.720782 cumulative IPC: 0.701538 (Simulation time: 1 hr 18 min 42 sec) 
Heartbeat CPU 0 instructions: 127000002 cycles: 129794189 heartbeat IPC: 0.673421 cumulative IPC: 0.701158 (Simulation time: 1 hr 19 min 26 sec) 
Heartbeat CPU 0 instructions: 128000000 cycles: 131199812 heartbeat IPC: 0.711427 cumulative IPC: 0.701288 (Simulation time: 1 hr 20 min 7 sec) 
Heartbeat CPU 0 instructions: 129000003 cycles: 132562628 heartbeat IPC: 0.733777 cumulative IPC: 0.701681 (Simulation time: 1 hr 20 min 47 sec) 
Heartbeat CPU 0 instructions: 130000000 cycles: 133941461 heartbeat IPC: 0.725249 cumulative IPC: 0.701966 (Simulation time: 1 hr 21 min 24 sec) 
Heartbeat CPU 0 instructions: 131000001 cycles: 135281002 heartbeat IPC: 0.746525 cumulative IPC: 0.702484 (Simulation time: 1 hr 21 min 56 sec) 
Heartbeat CPU 0 instructions: 132000000 cycles: 136620672 heartbeat IPC: 0.746452 cumulative IPC: 0.702989 (Simulation time: 1 hr 22 min 24 sec) 
Heartbeat CPU 0 instructions: 133000003 cycles: 138051069 heartbeat IPC: 0.699109 cumulative IPC: 0.702942 (Simulation time: 1 hr 22 min 54 sec) 
Heartbeat CPU 0 instructions: 134000001 cycles: 139571195 heartbeat IPC: 0.657839 cumulative IPC: 0.702369 (Simulation time: 1 hr 23 min 23 sec) 
Heartbeat CPU 0 instructions: 135000000 cycles: 141038704 heartbeat IPC: 0.681426 cumulative IPC: 0.702115 (Simulation time: 1 hr 23 min 51 sec) 
Heartbeat CPU 0 instructions: 136000000 cycles: 142436296 heartbeat IPC: 0.715516 cumulative IPC: 0.702268 (Simulation time: 1 hr 24 min 19 sec) 
Heartbeat CPU 0 instructions: 137000002 cycles: 143850046 heartbeat IPC: 0.70734 cumulative IPC: 0.702326 (Simulation time: 1 hr 24 min 46 sec) 
Heartbeat CPU 0 instructions: 138000001 cycles: 145271264 heartbeat IPC: 0.703621 cumulative IPC: 0.70234 (Simulation time: 1 hr 25 min 12 sec) 
Heartbeat CPU 0 instructions: 139000000 cycles: 146720032 heartbeat IPC: 0.690241 cumulative IPC: 0.702202 (Simulation time: 1 hr 25 min 37 sec) 
Heartbeat CPU 0 instructions: 140000000 cycles: 148196225 heartbeat IPC: 0.677418 cumulative IPC: 0.701917 (Simulation time: 1 hr 26 min 0 sec) 
Heartbeat CPU 0 instructions: 141000001 cycles: 149719305 heartbeat IPC: 0.656565 cumulative IPC: 0.701384 (Simulation time: 1 hr 26 min 23 sec) 
Heartbeat CPU 0 instructions: 142000003 cycles: 151070641 heartbeat IPC: 0.74001 cumulative IPC: 0.701783 (Simulation time: 1 hr 26 min 47 sec) 
Heartbeat CPU 0 instructions: 143000003 cycles: 152432572 heartbeat IPC: 0.734252 cumulative IPC: 0.702116 (Simulation time: 1 hr 27 min 9 sec) 
Heartbeat CPU 0 instructions: 144000000 cycles: 153891475 heartbeat IPC: 0.685444 cumulative IPC: 0.701935 (Simulation time: 1 hr 27 min 32 sec) 
Heartbeat CPU 0 instructions: 145000002 cycles: 155279532 heartbeat IPC: 0.720433 cumulative IPC: 0.702125 (Simulation time: 1 hr 27 min 54 sec) 
Heartbeat CPU 0 instructions: 146000000 cycles: 156727742 heartbeat IPC: 0.690506 cumulative IPC: 0.702002 (Simulation time: 1 hr 28 min 15 sec) 
Heartbeat CPU 0 instructions: 147000000 cycles: 158180345 heartbeat IPC: 0.688419 cumulative IPC: 0.701859 (Simulation time: 1 hr 28 min 36 sec) 
Heartbeat CPU 0 instructions: 148000000 cycles: 159608904 heartbeat IPC: 0.700006 cumulative IPC: 0.70184 (Simulation time: 1 hr 28 min 57 sec) 
Heartbeat CPU 0 instructions: 149000001 cycles: 161035647 heartbeat IPC: 0.700898 cumulative IPC: 0.70183 (Simulation time: 1 hr 29 min 17 sec) 
Heartbeat CPU 0 instructions: 150000003 cycles: 162434436 heartbeat IPC: 0.714906 cumulative IPC: 0.701959 (Simulation time: 1 hr 29 min 35 sec) 
Finished CPU 0 instructions: 100000000 cycles: 142458532 cummulative IPC: 0.701959 (Simulation time: 1 hr 29 min 35 sec) 

ChampSim completed all CPUs

Region of Interest Statistics

CPU 0 cummulative IPC: 0.701959 instructions: 100000000 cycles: 142458532
LLC TOTAL     ACCESS:    5311816  HIT:    1753587  MISS:    3558229
LLC LOAD      ACCESS:     371650  HIT:      13304  MISS:     358346
LLC RFO       ACCESS:    2270820  HIT:     617801  MISS:    1653019
LLC PREFETCH  ACCESS:     398585  HIT:      17130  MISS:     381455
LLC WRITEBACK ACCESS:    2270761  HIT:    1105352  MISS:    1165409
OPTgen accesses: 63488
OPTgen hits: 20872
OPTgen hit rate: 32.8755


