
*** ChampSim Multicore Out-of-Order Simulator ***

Warmup Instructions: 10000000
Simulation Instructions: 100000000
Configuration: 2
Number of CPUs: 1
LLC sets: 2048
LLC ways: 16
Off-chip DRAM Channels: 1 Width: 64-bit Data Rate: 1600 MT/s

CPU 0 runs /datasets/cs240c-wi22-a00-public/data/Assignment2-gz/sphinx3_2520B.trace.gz
CPU 0 L1D next line prefetcher
CPU 0 L2C IP-based stride prefetcher
Initialize SRRIP state
Heartbeat CPU 0 instructions: 1000003 cycles: 338965 heartbeat IPC: 2.95017 cumulative IPC: 2.95017 (Simulation time: 0 hr 0 min 30 sec) 
Heartbeat CPU 0 instructions: 2000000 cycles: 737243 heartbeat IPC: 2.5108 cumulative IPC: 2.71281 (Simulation time: 0 hr 1 min 8 sec) 
Heartbeat CPU 0 instructions: 3000003 cycles: 1185241 heartbeat IPC: 2.23216 cumulative IPC: 2.53113 (Simulation time: 0 hr 1 min 42 sec) 
Heartbeat CPU 0 instructions: 4000000 cycles: 1524269 heartbeat IPC: 2.9496 cumulative IPC: 2.62421 (Simulation time: 0 hr 2 min 16 sec) 
Heartbeat CPU 0 instructions: 5000001 cycles: 1902428 heartbeat IPC: 2.64439 cumulative IPC: 2.62822 (Simulation time: 0 hr 2 min 48 sec) 
Heartbeat CPU 0 instructions: 6000001 cycles: 2367856 heartbeat IPC: 2.14856 cumulative IPC: 2.53394 (Simulation time: 0 hr 3 min 20 sec) 
Heartbeat CPU 0 instructions: 7000001 cycles: 2706797 heartbeat IPC: 2.95037 cumulative IPC: 2.58608 (Simulation time: 0 hr 3 min 51 sec) 
Heartbeat CPU 0 instructions: 8000000 cycles: 3055805 heartbeat IPC: 2.86526 cumulative IPC: 2.61797 (Simulation time: 0 hr 4 min 19 sec) 
Heartbeat CPU 0 instructions: 9000000 cycles: 3509228 heartbeat IPC: 2.20545 cumulative IPC: 2.56467 (Simulation time: 0 hr 4 min 47 sec) 
Heartbeat CPU 0 instructions: 10000000 cycles: 3859387 heartbeat IPC: 2.85585 cumulative IPC: 2.59108 (Simulation time: 0 hr 5 min 17 sec) 

Warmup complete CPU 0 instructions: 10000004 cycles: 3859388 (Simulation time: 0 hr 5 min 17 sec) 

Heartbeat CPU 0 instructions: 11000001 cycles: 4648174 heartbeat IPC: 1.26777 cumulative IPC: 1.26777 (Simulation time: 0 hr 5 min 52 sec) 
Heartbeat CPU 0 instructions: 12000000 cycles: 5517173 heartbeat IPC: 1.15075 cumulative IPC: 1.20643 (Simulation time: 0 hr 6 min 26 sec) 
Heartbeat CPU 0 instructions: 13000002 cycles: 6377649 heartbeat IPC: 1.16215 cumulative IPC: 1.1913 (Simulation time: 0 hr 7 min 0 sec) 
Heartbeat CPU 0 instructions: 14000002 cycles: 7143328 heartbeat IPC: 1.30603 cumulative IPC: 1.21805 (Simulation time: 0 hr 7 min 33 sec) 
Heartbeat CPU 0 instructions: 15000003 cycles: 8028980 heartbeat IPC: 1.12911 cumulative IPC: 1.19916 (Simulation time: 0 hr 8 min 4 sec) 
Heartbeat CPU 0 instructions: 16000000 cycles: 8874127 heartbeat IPC: 1.18322 cumulative IPC: 1.19647 (Simulation time: 0 hr 8 min 36 sec) 
Heartbeat CPU 0 instructions: 17000000 cycles: 9631564 heartbeat IPC: 1.32024 cumulative IPC: 1.21271 (Simulation time: 0 hr 9 min 9 sec) 
Heartbeat CPU 0 instructions: 18000002 cycles: 10493031 heartbeat IPC: 1.16081 cumulative IPC: 1.20597 (Simulation time: 0 hr 9 min 40 sec) 
Heartbeat CPU 0 instructions: 19000001 cycles: 11311405 heartbeat IPC: 1.22193 cumulative IPC: 1.20773 (Simulation time: 0 hr 10 min 13 sec) 
Heartbeat CPU 0 instructions: 20000000 cycles: 12062784 heartbeat IPC: 1.33088 cumulative IPC: 1.21901 (Simulation time: 0 hr 10 min 47 sec) 
Heartbeat CPU 0 instructions: 21000001 cycles: 13234094 heartbeat IPC: 0.853746 cumulative IPC: 1.17337 (Simulation time: 0 hr 11 min 22 sec) 
Heartbeat CPU 0 instructions: 22000002 cycles: 14185706 heartbeat IPC: 1.05085 cumulative IPC: 1.16208 (Simulation time: 0 hr 11 min 54 sec) 
Heartbeat CPU 0 instructions: 23000001 cycles: 14997916 heartbeat IPC: 1.23121 cumulative IPC: 1.16712 (Simulation time: 0 hr 12 min 26 sec) 
Heartbeat CPU 0 instructions: 24000000 cycles: 15774702 heartbeat IPC: 1.28735 cumulative IPC: 1.17496 (Simulation time: 0 hr 12 min 57 sec) 
Heartbeat CPU 0 instructions: 25000003 cycles: 16591061 heartbeat IPC: 1.22495 cumulative IPC: 1.17816 (Simulation time: 0 hr 13 min 30 sec) 
Heartbeat CPU 0 instructions: 26000001 cycles: 17382428 heartbeat IPC: 1.26363 cumulative IPC: 1.18317 (Simulation time: 0 hr 14 min 3 sec) 
Heartbeat CPU 0 instructions: 27000002 cycles: 18157221 heartbeat IPC: 1.29067 cumulative IPC: 1.18899 (Simulation time: 0 hr 14 min 34 sec) 
Heartbeat CPU 0 instructions: 28000000 cycles: 18978887 heartbeat IPC: 1.21704 cumulative IPC: 1.19052 (Simulation time: 0 hr 15 min 3 sec) 
Heartbeat CPU 0 instructions: 29000003 cycles: 19774540 heartbeat IPC: 1.25683 cumulative IPC: 1.19383 (Simulation time: 0 hr 15 min 33 sec) 
Heartbeat CPU 0 instructions: 30000003 cycles: 20544987 heartbeat IPC: 1.29795 cumulative IPC: 1.19864 (Simulation time: 0 hr 16 min 3 sec) 
Heartbeat CPU 0 instructions: 31000001 cycles: 21354053 heartbeat IPC: 1.23599 cumulative IPC: 1.20037 (Simulation time: 0 hr 16 min 34 sec) 
Heartbeat CPU 0 instructions: 32000000 cycles: 22137624 heartbeat IPC: 1.27621 cumulative IPC: 1.20362 (Simulation time: 0 hr 17 min 6 sec) 
Heartbeat CPU 0 instructions: 33000000 cycles: 22909836 heartbeat IPC: 1.29498 cumulative IPC: 1.20732 (Simulation time: 0 hr 17 min 37 sec) 
Heartbeat CPU 0 instructions: 34000000 cycles: 23712530 heartbeat IPC: 1.2458 cumulative IPC: 1.20888 (Simulation time: 0 hr 18 min 15 sec) 
Heartbeat CPU 0 instructions: 35000002 cycles: 24501272 heartbeat IPC: 1.26784 cumulative IPC: 1.21113 (Simulation time: 0 hr 18 min 51 sec) 
Heartbeat CPU 0 instructions: 36000000 cycles: 25253510 heartbeat IPC: 1.32936 cumulative IPC: 1.21529 (Simulation time: 0 hr 19 min 19 sec) 
Heartbeat CPU 0 instructions: 37000000 cycles: 26070551 heartbeat IPC: 1.22393 cumulative IPC: 1.2156 (Simulation time: 0 hr 19 min 48 sec) 
Heartbeat CPU 0 instructions: 38000002 cycles: 26863501 heartbeat IPC: 1.26112 cumulative IPC: 1.21717 (Simulation time: 0 hr 20 min 22 sec) 
Heartbeat CPU 0 instructions: 39000000 cycles: 27650824 heartbeat IPC: 1.27012 cumulative IPC: 1.21893 (Simulation time: 0 hr 20 min 56 sec) 
Heartbeat CPU 0 instructions: 40000000 cycles: 28476125 heartbeat IPC: 1.21168 cumulative IPC: 1.21868 (Simulation time: 0 hr 21 min 25 sec) 
Heartbeat CPU 0 instructions: 41000001 cycles: 29260554 heartbeat IPC: 1.27481 cumulative IPC: 1.22042 (Simulation time: 0 hr 21 min 55 sec) 
Heartbeat CPU 0 instructions: 42000002 cycles: 30051508 heartbeat IPC: 1.2643 cumulative IPC: 1.22174 (Simulation time: 0 hr 22 min 28 sec) 
Heartbeat CPU 0 instructions: 43000001 cycles: 30846318 heartbeat IPC: 1.25816 cumulative IPC: 1.22281 (Simulation time: 0 hr 22 min 57 sec) 
Heartbeat CPU 0 instructions: 44000000 cycles: 31625721 heartbeat IPC: 1.28303 cumulative IPC: 1.2245 (Simulation time: 0 hr 23 min 28 sec) 
Heartbeat CPU 0 instructions: 45000001 cycles: 32410329 heartbeat IPC: 1.27452 cumulative IPC: 1.22588 (Simulation time: 0 hr 23 min 59 sec) 
Heartbeat CPU 0 instructions: 46000001 cycles: 33225619 heartbeat IPC: 1.22656 cumulative IPC: 1.2259 (Simulation time: 0 hr 24 min 32 sec) 
Heartbeat CPU 0 instructions: 47000003 cycles: 34001697 heartbeat IPC: 1.28853 cumulative IPC: 1.22751 (Simulation time: 0 hr 25 min 1 sec) 
Heartbeat CPU 0 instructions: 48000000 cycles: 34800323 heartbeat IPC: 1.25215 cumulative IPC: 1.22815 (Simulation time: 0 hr 25 min 31 sec) 
Heartbeat CPU 0 instructions: 49000002 cycles: 35577663 heartbeat IPC: 1.28644 cumulative IPC: 1.22958 (Simulation time: 0 hr 26 min 1 sec) 
Heartbeat CPU 0 instructions: 50000002 cycles: 36343190 heartbeat IPC: 1.30629 cumulative IPC: 1.23138 (Simulation time: 0 hr 26 min 31 sec) 
Heartbeat CPU 0 instructions: 51000001 cycles: 37142614 heartbeat IPC: 1.2509 cumulative IPC: 1.23185 (Simulation time: 0 hr 27 min 0 sec) 
Heartbeat CPU 0 instructions: 52000000 cycles: 37910356 heartbeat IPC: 1.30252 cumulative IPC: 1.23345 (Simulation time: 0 hr 27 min 33 sec) 
Heartbeat CPU 0 instructions: 53000001 cycles: 38678311 heartbeat IPC: 1.30216 cumulative IPC: 1.23496 (Simulation time: 0 hr 28 min 2 sec) 
Heartbeat CPU 0 instructions: 54000001 cycles: 39447468 heartbeat IPC: 1.30012 cumulative IPC: 1.23637 (Simulation time: 0 hr 28 min 36 sec) 
Heartbeat CPU 0 instructions: 55000000 cycles: 40200920 heartbeat IPC: 1.32722 cumulative IPC: 1.23825 (Simulation time: 0 hr 29 min 17 sec) 
Heartbeat CPU 0 instructions: 56000000 cycles: 40960897 heartbeat IPC: 1.31583 cumulative IPC: 1.23984 (Simulation time: 0 hr 29 min 51 sec) 
Heartbeat CPU 0 instructions: 57000000 cycles: 41843487 heartbeat IPC: 1.13303 cumulative IPC: 1.23736 (Simulation time: 0 hr 30 min 25 sec) 
Heartbeat CPU 0 instructions: 58000002 cycles: 42972070 heartbeat IPC: 0.886069 cumulative IPC: 1.22722 (Simulation time: 0 hr 30 min 57 sec) 
Heartbeat CPU 0 instructions: 59000001 cycles: 43768820 heartbeat IPC: 1.2551 cumulative IPC: 1.22778 (Simulation time: 0 hr 31 min 26 sec) 
Heartbeat CPU 0 instructions: 60000000 cycles: 44539142 heartbeat IPC: 1.29816 cumulative IPC: 1.22911 (Simulation time: 0 hr 31 min 57 sec) 
Heartbeat CPU 0 instructions: 61000001 cycles: 45302868 heartbeat IPC: 1.30937 cumulative IPC: 1.23059 (Simulation time: 0 hr 32 min 30 sec) 
Heartbeat CPU 0 instructions: 62000000 cycles: 46073019 heartbeat IPC: 1.29845 cumulative IPC: 1.23183 (Simulation time: 0 hr 33 min 0 sec) 
Heartbeat CPU 0 instructions: 63000002 cycles: 46833850 heartbeat IPC: 1.31436 cumulative IPC: 1.23329 (Simulation time: 0 hr 33 min 30 sec) 
Heartbeat CPU 0 instructions: 64000000 cycles: 47607929 heartbeat IPC: 1.29186 cumulative IPC: 1.23433 (Simulation time: 0 hr 34 min 2 sec) 
Heartbeat CPU 0 instructions: 65000003 cycles: 48372432 heartbeat IPC: 1.30804 cumulative IPC: 1.23559 (Simulation time: 0 hr 34 min 35 sec) 
Heartbeat CPU 0 instructions: 66000003 cycles: 49133985 heartbeat IPC: 1.31311 cumulative IPC: 1.2369 (Simulation time: 0 hr 35 min 10 sec) 
Heartbeat CPU 0 instructions: 67000003 cycles: 49944932 heartbeat IPC: 1.23313 cumulative IPC: 1.23683 (Simulation time: 0 hr 35 min 41 sec) 
Heartbeat CPU 0 instructions: 68000000 cycles: 50715934 heartbeat IPC: 1.29701 cumulative IPC: 1.23782 (Simulation time: 0 hr 36 min 13 sec) 
Heartbeat CPU 0 instructions: 69000003 cycles: 51483820 heartbeat IPC: 1.30228 cumulative IPC: 1.23886 (Simulation time: 0 hr 36 min 45 sec) 
Heartbeat CPU 0 instructions: 70000000 cycles: 52278365 heartbeat IPC: 1.25858 cumulative IPC: 1.23918 (Simulation time: 0 hr 37 min 15 sec) 
Heartbeat CPU 0 instructions: 71000002 cycles: 53048864 heartbeat IPC: 1.29786 cumulative IPC: 1.2401 (Simulation time: 0 hr 37 min 46 sec) 
Heartbeat CPU 0 instructions: 72000000 cycles: 53817728 heartbeat IPC: 1.30062 cumulative IPC: 1.24103 (Simulation time: 0 hr 38 min 18 sec) 
Heartbeat CPU 0 instructions: 73000003 cycles: 54600352 heartbeat IPC: 1.27776 cumulative IPC: 1.2416 (Simulation time: 0 hr 38 min 47 sec) 
Heartbeat CPU 0 instructions: 74000003 cycles: 55365760 heartbeat IPC: 1.30649 cumulative IPC: 1.24256 (Simulation time: 0 hr 39 min 17 sec) 
Heartbeat CPU 0 instructions: 75000002 cycles: 56136985 heartbeat IPC: 1.29664 cumulative IPC: 1.24336 (Simulation time: 0 hr 39 min 50 sec) 
Heartbeat CPU 0 instructions: 76000000 cycles: 56915567 heartbeat IPC: 1.28438 cumulative IPC: 1.24396 (Simulation time: 0 hr 40 min 21 sec) 
Heartbeat CPU 0 instructions: 77000003 cycles: 57704027 heartbeat IPC: 1.2683 cumulative IPC: 1.24432 (Simulation time: 0 hr 40 min 54 sec) 
Heartbeat CPU 0 instructions: 78000003 cycles: 58464459 heartbeat IPC: 1.31504 cumulative IPC: 1.24531 (Simulation time: 0 hr 41 min 28 sec) 
Heartbeat CPU 0 instructions: 79000003 cycles: 59243454 heartbeat IPC: 1.28371 cumulative IPC: 1.24585 (Simulation time: 0 hr 41 min 57 sec) 
Heartbeat CPU 0 instructions: 80000000 cycles: 60023475 heartbeat IPC: 1.28201 cumulative IPC: 1.24635 (Simulation time: 0 hr 42 min 37 sec) 
Heartbeat CPU 0 instructions: 81000001 cycles: 60784363 heartbeat IPC: 1.31426 cumulative IPC: 1.24726 (Simulation time: 0 hr 43 min 10 sec) 
Heartbeat CPU 0 instructions: 82000002 cycles: 61566828 heartbeat IPC: 1.27801 cumulative IPC: 1.24767 (Simulation time: 0 hr 43 min 48 sec) 
Heartbeat CPU 0 instructions: 83000003 cycles: 62360969 heartbeat IPC: 1.25922 cumulative IPC: 1.24783 (Simulation time: 0 hr 44 min 17 sec) 
Heartbeat CPU 0 instructions: 84000000 cycles: 63115212 heartbeat IPC: 1.32583 cumulative IPC: 1.24882 (Simulation time: 0 hr 44 min 49 sec) 
Heartbeat CPU 0 instructions: 85000001 cycles: 63897874 heartbeat IPC: 1.27769 cumulative IPC: 1.2492 (Simulation time: 0 hr 45 min 18 sec) 
Heartbeat CPU 0 instructions: 86000000 cycles: 64664152 heartbeat IPC: 1.30501 cumulative IPC: 1.2499 (Simulation time: 0 hr 45 min 50 sec) 
Heartbeat CPU 0 instructions: 87000003 cycles: 65419238 heartbeat IPC: 1.32436 cumulative IPC: 1.25082 (Simulation time: 0 hr 46 min 22 sec) 
Heartbeat CPU 0 instructions: 88000000 cycles: 66206293 heartbeat IPC: 1.27056 cumulative IPC: 1.25106 (Simulation time: 0 hr 46 min 50 sec) 
Heartbeat CPU 0 instructions: 89000000 cycles: 66968109 heartbeat IPC: 1.31265 cumulative IPC: 1.25181 (Simulation time: 0 hr 47 min 20 sec) 
Heartbeat CPU 0 instructions: 90000001 cycles: 67705516 heartbeat IPC: 1.3561 cumulative IPC: 1.25301 (Simulation time: 0 hr 47 min 49 sec) 
Heartbeat CPU 0 instructions: 91000001 cycles: 68491167 heartbeat IPC: 1.27283 cumulative IPC: 1.25325 (Simulation time: 0 hr 48 min 21 sec) 
Heartbeat CPU 0 instructions: 92000000 cycles: 69257094 heartbeat IPC: 1.30561 cumulative IPC: 1.25387 (Simulation time: 0 hr 48 min 52 sec) 
Heartbeat CPU 0 instructions: 93000002 cycles: 69980380 heartbeat IPC: 1.38258 cumulative IPC: 1.25527 (Simulation time: 0 hr 49 min 24 sec) 
Heartbeat CPU 0 instructions: 94000000 cycles: 70785107 heartbeat IPC: 1.24265 cumulative IPC: 1.25512 (Simulation time: 0 hr 49 min 52 sec) 
Heartbeat CPU 0 instructions: 95000000 cycles: 71545719 heartbeat IPC: 1.31473 cumulative IPC: 1.25579 (Simulation time: 0 hr 50 min 21 sec) 
Heartbeat CPU 0 instructions: 96000000 cycles: 72296724 heartbeat IPC: 1.33155 cumulative IPC: 1.25662 (Simulation time: 0 hr 50 min 51 sec) 
Heartbeat CPU 0 instructions: 97000002 cycles: 73478769 heartbeat IPC: 0.845993 cumulative IPC: 1.24965 (Simulation time: 0 hr 51 min 24 sec) 
Heartbeat CPU 0 instructions: 98000003 cycles: 74404670 heartbeat IPC: 1.08003 cumulative IPC: 1.24743 (Simulation time: 0 hr 51 min 53 sec) 
Heartbeat CPU 0 instructions: 99000001 cycles: 75190340 heartbeat IPC: 1.2728 cumulative IPC: 1.24771 (Simulation time: 0 hr 52 min 21 sec) 
Heartbeat CPU 0 instructions: 100000000 cycles: 75942696 heartbeat IPC: 1.32916 cumulative IPC: 1.24856 (Simulation time: 0 hr 52 min 52 sec) 
Heartbeat CPU 0 instructions: 101000001 cycles: 77298509 heartbeat IPC: 0.737566 cumulative IPC: 1.23912 (Simulation time: 0 hr 53 min 22 sec) 
Heartbeat CPU 0 instructions: 102000002 cycles: 78118764 heartbeat IPC: 1.21913 cumulative IPC: 1.2389 (Simulation time: 0 hr 53 min 54 sec) 
Heartbeat CPU 0 instructions: 103000001 cycles: 78922295 heartbeat IPC: 1.24451 cumulative IPC: 1.23896 (Simulation time: 0 hr 54 min 22 sec) 
Heartbeat CPU 0 instructions: 104000000 cycles: 80146090 heartbeat IPC: 0.817129 cumulative IPC: 1.23219 (Simulation time: 0 hr 54 min 51 sec) 
Heartbeat CPU 0 instructions: 105000002 cycles: 80966691 heartbeat IPC: 1.21862 cumulative IPC: 1.23205 (Simulation time: 0 hr 55 min 18 sec) 
Heartbeat CPU 0 instructions: 106000000 cycles: 81747919 heartbeat IPC: 1.28003 cumulative IPC: 1.23253 (Simulation time: 0 hr 55 min 49 sec) 
Heartbeat CPU 0 instructions: 107000000 cycles: 82813702 heartbeat IPC: 0.938277 cumulative IPC: 1.22856 (Simulation time: 0 hr 56 min 16 sec) 
Heartbeat CPU 0 instructions: 108000000 cycles: 83792857 heartbeat IPC: 1.02129 cumulative IPC: 1.22602 (Simulation time: 0 hr 56 min 37 sec) 
Heartbeat CPU 0 instructions: 109000003 cycles: 84570184 heartbeat IPC: 1.28646 cumulative IPC: 1.2266 (Simulation time: 0 hr 56 min 59 sec) 
Heartbeat CPU 0 instructions: 110000000 cycles: 85418467 heartbeat IPC: 1.17885 cumulative IPC: 1.2261 (Simulation time: 0 hr 57 min 20 sec) 
Finished CPU 0 instructions: 100000003 cycles: 81559083 cummulative IPC: 1.22611 (Simulation time: 0 hr 57 min 20 sec) 

ChampSim completed all CPUs

Region of Interest Statistics

CPU 0 cummulative IPC: 1.22611 instructions: 100000003 cycles: 81559083
LLC TOTAL     ACCESS:    1445925  HIT:     852474  MISS:     593451
LLC LOAD      ACCESS:     118929  HIT:     100152  MISS:      18777
LLC RFO       ACCESS:     121987  HIT:     120565  MISS:       1422
LLC PREFETCH  ACCESS:    1076613  HIT:     503569  MISS:     573044
LLC WRITEBACK ACCESS:     128396  HIT:     128188  MISS:        208
Insertion Distribution: 
	LOAD 9961 0 14470 3175 
	RFO 1235 0 3359 0 
	PREF 0 8683 53074 592862 
	WRITEBACK 0 0 0 271 
Total Prefetch Downgrades: 5495
