
*** ChampSim Multicore Out-of-Order Simulator ***

Warmup Instructions: 10000000
Simulation Instructions: 100000000
Configuration: 2
Number of CPUs: 1
LLC sets: 2048
LLC ways: 16
Off-chip DRAM Channels: 1 Width: 64-bit Data Rate: 1600 MT/s

CPU 0 runs /datasets/cs240c-wi22-a00-public/data/Assignment2-gz/leslie3d_1186B.trace.gz
CPU 0 L1D next line prefetcher
CPU 0 L2C IP-based stride prefetcher
Initialize SRRIP state
Heartbeat CPU 0 instructions: 1000002 cycles: 564509 heartbeat IPC: 1.77145 cumulative IPC: 1.77145 (Simulation time: 0 hr 0 min 44 sec) 
Heartbeat CPU 0 instructions: 2000000 cycles: 1215814 heartbeat IPC: 1.53538 cumulative IPC: 1.64499 (Simulation time: 0 hr 1 min 24 sec) 
Heartbeat CPU 0 instructions: 3000000 cycles: 1867530 heartbeat IPC: 1.53441 cumulative IPC: 1.6064 (Simulation time: 0 hr 2 min 12 sec) 
Heartbeat CPU 0 instructions: 4000000 cycles: 2473057 heartbeat IPC: 1.65145 cumulative IPC: 1.61743 (Simulation time: 0 hr 2 min 50 sec) 
Heartbeat CPU 0 instructions: 5000000 cycles: 3083368 heartbeat IPC: 1.63851 cumulative IPC: 1.6216 (Simulation time: 0 hr 3 min 34 sec) 
Heartbeat CPU 0 instructions: 6000000 cycles: 3735078 heartbeat IPC: 1.53442 cumulative IPC: 1.60639 (Simulation time: 0 hr 4 min 19 sec) 
Heartbeat CPU 0 instructions: 7000001 cycles: 4386323 heartbeat IPC: 1.53552 cumulative IPC: 1.59587 (Simulation time: 0 hr 5 min 0 sec) 
Heartbeat CPU 0 instructions: 8000000 cycles: 4950913 heartbeat IPC: 1.7712 cumulative IPC: 1.61586 (Simulation time: 0 hr 5 min 36 sec) 
Heartbeat CPU 0 instructions: 9000003 cycles: 5602206 heartbeat IPC: 1.53541 cumulative IPC: 1.60651 (Simulation time: 0 hr 6 min 16 sec) 
Heartbeat CPU 0 instructions: 10000001 cycles: 6253368 heartbeat IPC: 1.53571 cumulative IPC: 1.59914 (Simulation time: 0 hr 6 min 53 sec) 

Warmup complete CPU 0 instructions: 10000001 cycles: 6253368 (Simulation time: 0 hr 6 min 53 sec) 

Heartbeat CPU 0 instructions: 11000001 cycles: 7717276 heartbeat IPC: 0.683103 cumulative IPC: 0.683103 (Simulation time: 0 hr 7 min 37 sec) 
Heartbeat CPU 0 instructions: 12000000 cycles: 8958381 heartbeat IPC: 0.805733 cumulative IPC: 0.739368 (Simulation time: 0 hr 8 min 16 sec) 
Heartbeat CPU 0 instructions: 13000000 cycles: 10149236 heartbeat IPC: 0.839733 cumulative IPC: 0.770046 (Simulation time: 0 hr 8 min 56 sec) 
Heartbeat CPU 0 instructions: 14000000 cycles: 11379589 heartbeat IPC: 0.812775 cumulative IPC: 0.780302 (Simulation time: 0 hr 9 min 34 sec) 
Heartbeat CPU 0 instructions: 15000002 cycles: 12814262 heartbeat IPC: 0.697024 cumulative IPC: 0.762091 (Simulation time: 0 hr 10 min 11 sec) 
Heartbeat CPU 0 instructions: 16000000 cycles: 13998286 heartbeat IPC: 0.844576 cumulative IPC: 0.774701 (Simulation time: 0 hr 10 min 49 sec) 
Heartbeat CPU 0 instructions: 17000000 cycles: 15183123 heartbeat IPC: 0.843998 cumulative IPC: 0.783896 (Simulation time: 0 hr 11 min 32 sec) 
Heartbeat CPU 0 instructions: 18000001 cycles: 16623376 heartbeat IPC: 0.694323 cumulative IPC: 0.771456 (Simulation time: 0 hr 12 min 10 sec) 
Heartbeat CPU 0 instructions: 19000003 cycles: 17851795 heartbeat IPC: 0.814056 cumulative IPC: 0.775967 (Simulation time: 0 hr 12 min 47 sec) 
Heartbeat CPU 0 instructions: 20000000 cycles: 19058180 heartbeat IPC: 0.82892 cumulative IPC: 0.780956 (Simulation time: 0 hr 13 min 26 sec) 
Heartbeat CPU 0 instructions: 21000003 cycles: 20360843 heartbeat IPC: 0.767661 cumulative IPC: 0.779729 (Simulation time: 0 hr 14 min 3 sec) 
Heartbeat CPU 0 instructions: 22000003 cycles: 21693353 heartbeat IPC: 0.750463 cumulative IPC: 0.777203 (Simulation time: 0 hr 14 min 44 sec) 
Heartbeat CPU 0 instructions: 23000002 cycles: 22886728 heartbeat IPC: 0.837959 cumulative IPC: 0.781562 (Simulation time: 0 hr 15 min 25 sec) 
Heartbeat CPU 0 instructions: 24000000 cycles: 24065807 heartbeat IPC: 0.848118 cumulative IPC: 0.785968 (Simulation time: 0 hr 16 min 3 sec) 
Heartbeat CPU 0 instructions: 25000000 cycles: 25494498 heartbeat IPC: 0.699941 cumulative IPC: 0.77958 (Simulation time: 0 hr 16 min 41 sec) 
Heartbeat CPU 0 instructions: 26000000 cycles: 26694738 heartbeat IPC: 0.833167 cumulative IPC: 0.782726 (Simulation time: 0 hr 17 min 18 sec) 
Heartbeat CPU 0 instructions: 27000000 cycles: 27885717 heartbeat IPC: 0.839645 cumulative IPC: 0.78586 (Simulation time: 0 hr 17 min 54 sec) 
Heartbeat CPU 0 instructions: 28000000 cycles: 29283660 heartbeat IPC: 0.715337 cumulative IPC: 0.781579 (Simulation time: 0 hr 18 min 30 sec) 
Heartbeat CPU 0 instructions: 29000002 cycles: 30498037 heartbeat IPC: 0.823469 cumulative IPC: 0.783677 (Simulation time: 0 hr 19 min 13 sec) 
Heartbeat CPU 0 instructions: 30000002 cycles: 31688761 heartbeat IPC: 0.839825 cumulative IPC: 0.786306 (Simulation time: 0 hr 19 min 55 sec) 
Heartbeat CPU 0 instructions: 31000002 cycles: 32901300 heartbeat IPC: 0.824716 cumulative IPC: 0.788054 (Simulation time: 0 hr 20 min 35 sec) 
Heartbeat CPU 0 instructions: 32000000 cycles: 34296877 heartbeat IPC: 0.716548 cumulative IPC: 0.784495 (Simulation time: 0 hr 21 min 12 sec) 
Heartbeat CPU 0 instructions: 33000000 cycles: 35482266 heartbeat IPC: 0.843605 cumulative IPC: 0.786892 (Simulation time: 0 hr 21 min 52 sec) 
Heartbeat CPU 0 instructions: 34000000 cycles: 36673964 heartbeat IPC: 0.839139 cumulative IPC: 0.788939 (Simulation time: 0 hr 22 min 30 sec) 
Heartbeat CPU 0 instructions: 35000000 cycles: 38093065 heartbeat IPC: 0.704672 cumulative IPC: 0.785183 (Simulation time: 0 hr 23 min 6 sec) 
Heartbeat CPU 0 instructions: 36000000 cycles: 39310702 heartbeat IPC: 0.821263 cumulative IPC: 0.786512 (Simulation time: 0 hr 23 min 45 sec) 
Heartbeat CPU 0 instructions: 37000003 cycles: 40519747 heartbeat IPC: 0.827102 cumulative IPC: 0.787944 (Simulation time: 0 hr 24 min 22 sec) 
Heartbeat CPU 0 instructions: 38000003 cycles: 41841680 heartbeat IPC: 0.756468 cumulative IPC: 0.786775 (Simulation time: 0 hr 24 min 59 sec) 
Heartbeat CPU 0 instructions: 39000001 cycles: 43149684 heartbeat IPC: 0.764522 cumulative IPC: 0.785986 (Simulation time: 0 hr 25 min 37 sec) 
Heartbeat CPU 0 instructions: 40000000 cycles: 44354080 heartbeat IPC: 0.830291 cumulative IPC: 0.787387 (Simulation time: 0 hr 26 min 16 sec) 
Heartbeat CPU 0 instructions: 41000000 cycles: 45535448 heartbeat IPC: 0.846476 cumulative IPC: 0.789164 (Simulation time: 0 hr 26 min 54 sec) 
Heartbeat CPU 0 instructions: 42000000 cycles: 46961341 heartbeat IPC: 0.701315 cumulative IPC: 0.786087 (Simulation time: 0 hr 27 min 37 sec) 
Heartbeat CPU 0 instructions: 43000002 cycles: 48144246 heartbeat IPC: 0.845378 cumulative IPC: 0.787761 (Simulation time: 0 hr 28 min 14 sec) 
Heartbeat CPU 0 instructions: 44000000 cycles: 49337226 heartbeat IPC: 0.838235 cumulative IPC: 0.789159 (Simulation time: 0 hr 28 min 49 sec) 
Heartbeat CPU 0 instructions: 45000001 cycles: 50814231 heartbeat IPC: 0.677046 cumulative IPC: 0.785443 (Simulation time: 0 hr 29 min 27 sec) 
Heartbeat CPU 0 instructions: 46000001 cycles: 52524054 heartbeat IPC: 0.584856 cumulative IPC: 0.77803 (Simulation time: 0 hr 30 min 9 sec) 
Heartbeat CPU 0 instructions: 47000002 cycles: 54258371 heartbeat IPC: 0.576596 cumulative IPC: 0.770753 (Simulation time: 0 hr 30 min 48 sec) 
Heartbeat CPU 0 instructions: 48000000 cycles: 55977112 heartbeat IPC: 0.58182 cumulative IPC: 0.764222 (Simulation time: 0 hr 31 min 31 sec) 
Heartbeat CPU 0 instructions: 49000002 cycles: 57720585 heartbeat IPC: 0.573569 cumulative IPC: 0.757764 (Simulation time: 0 hr 32 min 10 sec) 
Heartbeat CPU 0 instructions: 50000002 cycles: 59622807 heartbeat IPC: 0.525701 cumulative IPC: 0.749493 (Simulation time: 0 hr 32 min 51 sec) 
Heartbeat CPU 0 instructions: 51000000 cycles: 61448809 heartbeat IPC: 0.547643 cumulative IPC: 0.742815 (Simulation time: 0 hr 33 min 31 sec) 
Heartbeat CPU 0 instructions: 52000000 cycles: 63279599 heartbeat IPC: 0.546212 cumulative IPC: 0.736503 (Simulation time: 0 hr 34 min 13 sec) 
Heartbeat CPU 0 instructions: 53000000 cycles: 65200183 heartbeat IPC: 0.520675 cumulative IPC: 0.729471 (Simulation time: 0 hr 34 min 53 sec) 
Heartbeat CPU 0 instructions: 54000003 cycles: 67073343 heartbeat IPC: 0.533859 cumulative IPC: 0.723447 (Simulation time: 0 hr 35 min 32 sec) 
Heartbeat CPU 0 instructions: 55000001 cycles: 69097374 heartbeat IPC: 0.494063 cumulative IPC: 0.716059 (Simulation time: 0 hr 36 min 11 sec) 
Heartbeat CPU 0 instructions: 56000000 cycles: 71445945 heartbeat IPC: 0.42579 cumulative IPC: 0.705602 (Simulation time: 0 hr 36 min 54 sec) 
Heartbeat CPU 0 instructions: 57000003 cycles: 73822250 heartbeat IPC: 0.420823 cumulative IPC: 0.695587 (Simulation time: 0 hr 37 min 36 sec) 
Heartbeat CPU 0 instructions: 58000001 cycles: 76111152 heartbeat IPC: 0.43689 cumulative IPC: 0.68711 (Simulation time: 0 hr 38 min 16 sec) 
Heartbeat CPU 0 instructions: 59000003 cycles: 78401545 heartbeat IPC: 0.436607 cumulative IPC: 0.679158 (Simulation time: 0 hr 39 min 3 sec) 
Heartbeat CPU 0 instructions: 60000000 cycles: 80711548 heartbeat IPC: 0.432899 cumulative IPC: 0.671518 (Simulation time: 0 hr 39 min 48 sec) 
Heartbeat CPU 0 instructions: 61000003 cycles: 83020656 heartbeat IPC: 0.433069 cumulative IPC: 0.664346 (Simulation time: 0 hr 40 min 32 sec) 
Heartbeat CPU 0 instructions: 62000001 cycles: 85342066 heartbeat IPC: 0.430772 cumulative IPC: 0.65749 (Simulation time: 0 hr 41 min 17 sec) 
Heartbeat CPU 0 instructions: 63000000 cycles: 87320395 heartbeat IPC: 0.505477 cumulative IPC: 0.65378 (Simulation time: 0 hr 41 min 58 sec) 
Heartbeat CPU 0 instructions: 64000000 cycles: 88540294 heartbeat IPC: 0.81974 cumulative IPC: 0.65624 (Simulation time: 0 hr 42 min 37 sec) 
Heartbeat CPU 0 instructions: 65000000 cycles: 89792586 heartbeat IPC: 0.798536 cumulative IPC: 0.658373 (Simulation time: 0 hr 43 min 15 sec) 
Heartbeat CPU 0 instructions: 66000002 cycles: 91048504 heartbeat IPC: 0.796232 cumulative IPC: 0.660415 (Simulation time: 0 hr 43 min 54 sec) 
Heartbeat CPU 0 instructions: 67000001 cycles: 92304242 heartbeat IPC: 0.796344 cumulative IPC: 0.662399 (Simulation time: 0 hr 44 min 34 sec) 
Heartbeat CPU 0 instructions: 68000000 cycles: 93623277 heartbeat IPC: 0.758129 cumulative IPC: 0.663844 (Simulation time: 0 hr 45 min 15 sec) 
Heartbeat CPU 0 instructions: 69000000 cycles: 94877667 heartbeat IPC: 0.7972 cumulative IPC: 0.665732 (Simulation time: 0 hr 45 min 54 sec) 
Heartbeat CPU 0 instructions: 70000000 cycles: 96171839 heartbeat IPC: 0.772695 cumulative IPC: 0.667271 (Simulation time: 0 hr 46 min 36 sec) 
Heartbeat CPU 0 instructions: 71000000 cycles: 97432529 heartbeat IPC: 0.793216 cumulative IPC: 0.669012 (Simulation time: 0 hr 47 min 18 sec) 
Heartbeat CPU 0 instructions: 72000000 cycles: 98713897 heartbeat IPC: 0.780416 cumulative IPC: 0.670556 (Simulation time: 0 hr 48 min 2 sec) 
Heartbeat CPU 0 instructions: 73000000 cycles: 100002059 heartbeat IPC: 0.7763 cumulative IPC: 0.672009 (Simulation time: 0 hr 48 min 42 sec) 
Heartbeat CPU 0 instructions: 74000000 cycles: 101263803 heartbeat IPC: 0.792554 cumulative IPC: 0.67361 (Simulation time: 0 hr 49 min 19 sec) 
Heartbeat CPU 0 instructions: 75000003 cycles: 102565424 heartbeat IPC: 0.768275 cumulative IPC: 0.67489 (Simulation time: 0 hr 49 min 59 sec) 
Heartbeat CPU 0 instructions: 76000000 cycles: 103825426 heartbeat IPC: 0.793647 cumulative IPC: 0.676423 (Simulation time: 0 hr 50 min 37 sec) 
Heartbeat CPU 0 instructions: 77000000 cycles: 105123515 heartbeat IPC: 0.770363 cumulative IPC: 0.677657 (Simulation time: 0 hr 51 min 15 sec) 
Heartbeat CPU 0 instructions: 78000001 cycles: 106404039 heartbeat IPC: 0.780931 cumulative IPC: 0.678977 (Simulation time: 0 hr 51 min 51 sec) 
Heartbeat CPU 0 instructions: 79000002 cycles: 107706965 heartbeat IPC: 0.767504 cumulative IPC: 0.680114 (Simulation time: 0 hr 52 min 28 sec) 
Heartbeat CPU 0 instructions: 80000000 cycles: 109003159 heartbeat IPC: 0.771488 cumulative IPC: 0.681267 (Simulation time: 0 hr 53 min 6 sec) 
Heartbeat CPU 0 instructions: 81000000 cycles: 110265925 heartbeat IPC: 0.791912 cumulative IPC: 0.68261 (Simulation time: 0 hr 53 min 41 sec) 
Heartbeat CPU 0 instructions: 82000003 cycles: 111571253 heartbeat IPC: 0.766093 cumulative IPC: 0.683645 (Simulation time: 0 hr 54 min 18 sec) 
Heartbeat CPU 0 instructions: 83000001 cycles: 112849347 heartbeat IPC: 0.782413 cumulative IPC: 0.684829 (Simulation time: 0 hr 54 min 53 sec) 
Heartbeat CPU 0 instructions: 84000000 cycles: 114144258 heartbeat IPC: 0.772253 cumulative IPC: 0.685878 (Simulation time: 0 hr 55 min 30 sec) 
Heartbeat CPU 0 instructions: 85000001 cycles: 115416409 heartbeat IPC: 0.786071 cumulative IPC: 0.687046 (Simulation time: 0 hr 56 min 5 sec) 
Heartbeat CPU 0 instructions: 86000003 cycles: 116709567 heartbeat IPC: 0.773302 cumulative IPC: 0.688056 (Simulation time: 0 hr 56 min 35 sec) 
Heartbeat CPU 0 instructions: 87000001 cycles: 117998184 heartbeat IPC: 0.776024 cumulative IPC: 0.68907 (Simulation time: 0 hr 57 min 1 sec) 
Heartbeat CPU 0 instructions: 88000000 cycles: 119301860 heartbeat IPC: 0.767061 cumulative IPC: 0.689969 (Simulation time: 0 hr 57 min 26 sec) 
Heartbeat CPU 0 instructions: 89000001 cycles: 120601269 heartbeat IPC: 0.769581 cumulative IPC: 0.690874 (Simulation time: 0 hr 57 min 51 sec) 
Heartbeat CPU 0 instructions: 90000002 cycles: 121886961 heartbeat IPC: 0.777792 cumulative IPC: 0.69184 (Simulation time: 0 hr 58 min 16 sec) 
Heartbeat CPU 0 instructions: 91000000 cycles: 123184385 heartbeat IPC: 0.770757 cumulative IPC: 0.692716 (Simulation time: 0 hr 58 min 38 sec) 
Heartbeat CPU 0 instructions: 92000000 cycles: 124456110 heartbeat IPC: 0.786334 cumulative IPC: 0.693723 (Simulation time: 0 hr 59 min 2 sec) 
Heartbeat CPU 0 instructions: 93000002 cycles: 125768975 heartbeat IPC: 0.761694 cumulative IPC: 0.69447 (Simulation time: 0 hr 59 min 27 sec) 
Heartbeat CPU 0 instructions: 94000000 cycles: 127028078 heartbeat IPC: 0.794215 cumulative IPC: 0.69551 (Simulation time: 0 hr 59 min 51 sec) 
Heartbeat CPU 0 instructions: 95000003 cycles: 128296769 heartbeat IPC: 0.788216 cumulative IPC: 0.696474 (Simulation time: 1 hr 0 min 14 sec) 
Heartbeat CPU 0 instructions: 96000000 cycles: 129595514 heartbeat IPC: 0.769972 cumulative IPC: 0.697247 (Simulation time: 1 hr 0 min 34 sec) 
Heartbeat CPU 0 instructions: 97000001 cycles: 130852056 heartbeat IPC: 0.795836 cumulative IPC: 0.698242 (Simulation time: 1 hr 0 min 55 sec) 
Heartbeat CPU 0 instructions: 98000002 cycles: 132157394 heartbeat IPC: 0.766086 cumulative IPC: 0.698945 (Simulation time: 1 hr 1 min 14 sec) 
Heartbeat CPU 0 instructions: 99000000 cycles: 133419480 heartbeat IPC: 0.792337 cumulative IPC: 0.699872 (Simulation time: 1 hr 1 min 34 sec) 
Heartbeat CPU 0 instructions: 100000000 cycles: 134731519 heartbeat IPC: 0.762172 cumulative IPC: 0.700508 (Simulation time: 1 hr 1 min 53 sec) 
Heartbeat CPU 0 instructions: 101000000 cycles: 135996889 heartbeat IPC: 0.790283 cumulative IPC: 0.701384 (Simulation time: 1 hr 2 min 14 sec) 
Heartbeat CPU 0 instructions: 102000001 cycles: 137254156 heartbeat IPC: 0.795377 cumulative IPC: 0.702286 (Simulation time: 1 hr 2 min 33 sec) 
Heartbeat CPU 0 instructions: 103000002 cycles: 138550021 heartbeat IPC: 0.771686 cumulative IPC: 0.702966 (Simulation time: 1 hr 2 min 51 sec) 
Heartbeat CPU 0 instructions: 104000000 cycles: 139797467 heartbeat IPC: 0.801636 cumulative IPC: 0.703887 (Simulation time: 1 hr 3 min 7 sec) 
Heartbeat CPU 0 instructions: 105000001 cycles: 141101853 heartbeat IPC: 0.766645 cumulative IPC: 0.704494 (Simulation time: 1 hr 3 min 22 sec) 
Heartbeat CPU 0 instructions: 106000002 cycles: 142356172 heartbeat IPC: 0.797246 cumulative IPC: 0.705349 (Simulation time: 1 hr 3 min 37 sec) 
Heartbeat CPU 0 instructions: 107000000 cycles: 143644732 heartbeat IPC: 0.776059 cumulative IPC: 0.706012 (Simulation time: 1 hr 3 min 52 sec) 
Heartbeat CPU 0 instructions: 108000000 cycles: 144909540 heartbeat IPC: 0.790634 cumulative IPC: 0.706784 (Simulation time: 1 hr 4 min 6 sec) 
Heartbeat CPU 0 instructions: 109000003 cycles: 146163973 heartbeat IPC: 0.797175 cumulative IPC: 0.707595 (Simulation time: 1 hr 4 min 21 sec) 
Heartbeat CPU 0 instructions: 110000001 cycles: 147460280 heartbeat IPC: 0.771421 cumulative IPC: 0.708181 (Simulation time: 1 hr 4 min 32 sec) 
Finished CPU 0 instructions: 100000000 cycles: 141206912 cummulative IPC: 0.708181 (Simulation time: 1 hr 4 min 32 sec) 

ChampSim completed all CPUs

Region of Interest Statistics

CPU 0 cummulative IPC: 0.708181 instructions: 100000000 cycles: 141206912
LLC TOTAL     ACCESS:    3757675  HIT:    1204734  MISS:    2552941
LLC LOAD      ACCESS:     404256  HIT:     120263  MISS:     283993
LLC RFO       ACCESS:     463735  HIT:     173968  MISS:     289767
LLC PREFETCH  ACCESS:    2140512  HIT:     576927  MISS:    1563585
LLC WRITEBACK ACCESS:     749172  HIT:     333576  MISS:     415596
Insertion Distribution: 
	LOAD 47431 0 45245 194889 
	RFO 959 0 25082 265876 
	PREF 0 75711 248779 1415405 
	WRITEBACK 0 0 0 439133 
Total Prefetch Downgrades: 66458
