
*** ChampSim Multicore Out-of-Order Simulator ***

Warmup Instructions: 10000000
Simulation Instructions: 100000000
Configuration: 2
Number of CPUs: 1
LLC sets: 2048
LLC ways: 16
Off-chip DRAM Channels: 1 Width: 64-bit Data Rate: 1600 MT/s

CPU 0 runs /datasets/cs240c-wi22-a00-public/data/Assignment2-gz/soplex_66B.trace.gz
CPU 0 L1D next line prefetcher
CPU 0 L2C IP-based stride prefetcher
Heartbeat CPU 0 instructions: 1000003 cycles: 415059 heartbeat IPC: 2.4093 cumulative IPC: 2.4093 (Simulation time: 0 hr 0 min 19 sec) 
select_counter is 415
Heartbeat CPU 0 instructions: 2000003 cycles: 837417 heartbeat IPC: 2.36766 cumulative IPC: 2.3883 (Simulation time: 0 hr 0 min 38 sec) 
select_counter is 475
Heartbeat CPU 0 instructions: 3000003 cycles: 1242445 heartbeat IPC: 2.46897 cumulative IPC: 2.4146 (Simulation time: 0 hr 0 min 57 sec) 
select_counter is 343
Heartbeat CPU 0 instructions: 4000000 cycles: 1626558 heartbeat IPC: 2.60339 cumulative IPC: 2.45918 (Simulation time: 0 hr 1 min 13 sec) 
select_counter is 288
Heartbeat CPU 0 instructions: 5000000 cycles: 2041401 heartbeat IPC: 2.41055 cumulative IPC: 2.4493 (Simulation time: 0 hr 1 min 31 sec) 
select_counter is 276
Heartbeat CPU 0 instructions: 6000000 cycles: 2514593 heartbeat IPC: 2.11331 cumulative IPC: 2.38607 (Simulation time: 0 hr 1 min 50 sec) 
select_counter is 570
Heartbeat CPU 0 instructions: 7000002 cycles: 2887194 heartbeat IPC: 2.68384 cumulative IPC: 2.4245 (Simulation time: 0 hr 2 min 10 sec) 
select_counter is 605
Heartbeat CPU 0 instructions: 8000000 cycles: 3312977 heartbeat IPC: 2.34861 cumulative IPC: 2.41475 (Simulation time: 0 hr 2 min 31 sec) 
select_counter is 508
Heartbeat CPU 0 instructions: 9000001 cycles: 3751527 heartbeat IPC: 2.28024 cumulative IPC: 2.39902 (Simulation time: 0 hr 2 min 50 sec) 
select_counter is 362
Heartbeat CPU 0 instructions: 10000002 cycles: 4163529 heartbeat IPC: 2.42718 cumulative IPC: 2.40181 (Simulation time: 0 hr 3 min 9 sec) 
select_counter is 113

Warmup complete CPU 0 instructions: 10000002 cycles: 4163529 (Simulation time: 0 hr 3 min 9 sec) 

Heartbeat CPU 0 instructions: 11000001 cycles: 7231063 heartbeat IPC: 0.325994 cumulative IPC: 0.325994 (Simulation time: 0 hr 3 min 34 sec) 
select_counter is 761
Heartbeat CPU 0 instructions: 12000000 cycles: 8562456 heartbeat IPC: 0.751092 cumulative IPC: 0.454656 (Simulation time: 0 hr 3 min 50 sec) 
select_counter is 676
Heartbeat CPU 0 instructions: 13000001 cycles: 11187264 heartbeat IPC: 0.380981 cumulative IPC: 0.427123 (Simulation time: 0 hr 4 min 12 sec) 
select_counter is 490
Heartbeat CPU 0 instructions: 14000002 cycles: 13695540 heartbeat IPC: 0.398681 cumulative IPC: 0.419639 (Simulation time: 0 hr 4 min 35 sec) 
select_counter is 511
Heartbeat CPU 0 instructions: 15000002 cycles: 16211590 heartbeat IPC: 0.397448 cumulative IPC: 0.415005 (Simulation time: 0 hr 4 min 54 sec) 
select_counter is 500
Heartbeat CPU 0 instructions: 16000000 cycles: 19075581 heartbeat IPC: 0.349162 cumulative IPC: 0.402359 (Simulation time: 0 hr 5 min 17 sec) 
select_counter is 522
Heartbeat CPU 0 instructions: 17000001 cycles: 21296205 heartbeat IPC: 0.450324 cumulative IPC: 0.408576 (Simulation time: 0 hr 5 min 42 sec) 
select_counter is 669
Heartbeat CPU 0 instructions: 18000000 cycles: 23295828 heartbeat IPC: 0.500094 cumulative IPC: 0.418141 (Simulation time: 0 hr 6 min 5 sec) 
select_counter is 434
Heartbeat CPU 0 instructions: 19000002 cycles: 26627104 heartbeat IPC: 0.300186 cumulative IPC: 0.400649 (Simulation time: 0 hr 6 min 32 sec) 
select_counter is 237
Heartbeat CPU 0 instructions: 20000000 cycles: 27947192 heartbeat IPC: 0.757524 cumulative IPC: 0.420457 (Simulation time: 0 hr 6 min 47 sec) 
select_counter is 168
Heartbeat CPU 0 instructions: 21000000 cycles: 30144711 heartbeat IPC: 0.455059 cumulative IPC: 0.423383 (Simulation time: 0 hr 7 min 7 sec) 
select_counter is 87
Heartbeat CPU 0 instructions: 22000000 cycles: 32860791 heartbeat IPC: 0.368178 cumulative IPC: 0.418158 (Simulation time: 0 hr 7 min 30 sec) 
select_counter is 187
Heartbeat CPU 0 instructions: 23000000 cycles: 35326001 heartbeat IPC: 0.405645 cumulative IPC: 0.417168 (Simulation time: 0 hr 7 min 49 sec) 
select_counter is 180
Heartbeat CPU 0 instructions: 24000000 cycles: 37869482 heartbeat IPC: 0.393162 cumulative IPC: 0.415357 (Simulation time: 0 hr 8 min 9 sec) 
select_counter is 155
Heartbeat CPU 0 instructions: 25000003 cycles: 40243249 heartbeat IPC: 0.421273 cumulative IPC: 0.415746 (Simulation time: 0 hr 8 min 37 sec) 
select_counter is 157
Heartbeat CPU 0 instructions: 26000001 cycles: 42411839 heartbeat IPC: 0.461128 cumulative IPC: 0.418319 (Simulation time: 0 hr 8 min 59 sec) 
select_counter is 69
Heartbeat CPU 0 instructions: 27000002 cycles: 45779168 heartbeat IPC: 0.296972 cumulative IPC: 0.4085 (Simulation time: 0 hr 9 min 26 sec) 
select_counter is 835
Heartbeat CPU 0 instructions: 28000000 cycles: 47103634 heartbeat IPC: 0.75502 cumulative IPC: 0.419188 (Simulation time: 0 hr 9 min 41 sec) 
select_counter is 778
Heartbeat CPU 0 instructions: 29000002 cycles: 48928637 heartbeat IPC: 0.547945 cumulative IPC: 0.424438 (Simulation time: 0 hr 10 min 0 sec) 
select_counter is 709
Heartbeat CPU 0 instructions: 30000000 cycles: 51801104 heartbeat IPC: 0.348132 cumulative IPC: 0.419837 (Simulation time: 0 hr 10 min 25 sec) 
select_counter is 787
Heartbeat CPU 0 instructions: 31000001 cycles: 54380412 heartbeat IPC: 0.387701 cumulative IPC: 0.418186 (Simulation time: 0 hr 10 min 44 sec) 
select_counter is 793
Heartbeat CPU 0 instructions: 32000000 cycles: 56944159 heartbeat IPC: 0.390054 cumulative IPC: 0.41682 (Simulation time: 0 hr 11 min 2 sec) 
select_counter is 767
Heartbeat CPU 0 instructions: 33000001 cycles: 60164147 heartbeat IPC: 0.31056 cumulative IPC: 0.41071 (Simulation time: 0 hr 11 min 30 sec) 
select_counter is 894
Heartbeat CPU 0 instructions: 34000003 cycles: 62136261 heartbeat IPC: 0.507071 cumulative IPC: 0.413988 (Simulation time: 0 hr 11 min 55 sec) 
select_counter is 653
Heartbeat CPU 0 instructions: 35000003 cycles: 65049120 heartbeat IPC: 0.343305 cumulative IPC: 0.410606 (Simulation time: 0 hr 12 min 18 sec) 
select_counter is 557
Heartbeat CPU 0 instructions: 36000000 cycles: 66381562 heartbeat IPC: 0.750499 cumulative IPC: 0.417885 (Simulation time: 0 hr 12 min 34 sec) 
select_counter is 545
Heartbeat CPU 0 instructions: 37000000 cycles: 68921435 heartbeat IPC: 0.39372 cumulative IPC: 0.416937 (Simulation time: 0 hr 12 min 55 sec) 
select_counter is 520
Heartbeat CPU 0 instructions: 38000001 cycles: 71352779 heartbeat IPC: 0.411296 cumulative IPC: 0.416733 (Simulation time: 0 hr 13 min 16 sec) 
select_counter is 562
Heartbeat CPU 0 instructions: 39000003 cycles: 73910916 heartbeat IPC: 0.39091 cumulative IPC: 0.415786 (Simulation time: 0 hr 13 min 36 sec) 
select_counter is 516
Heartbeat CPU 0 instructions: 40000000 cycles: 76794513 heartbeat IPC: 0.346788 cumulative IPC: 0.413047 (Simulation time: 0 hr 14 min 0 sec) 
select_counter is 543
Heartbeat CPU 0 instructions: 41000001 cycles: 78927074 heartbeat IPC: 0.46892 cumulative IPC: 0.414641 (Simulation time: 0 hr 14 min 24 sec) 
select_counter is 577
Heartbeat CPU 0 instructions: 42000003 cycles: 80892198 heartbeat IPC: 0.508875 cumulative IPC: 0.417054 (Simulation time: 0 hr 14 min 46 sec) 
select_counter is 409
Heartbeat CPU 0 instructions: 43000000 cycles: 84274818 heartbeat IPC: 0.295628 cumulative IPC: 0.411927 (Simulation time: 0 hr 15 min 12 sec) 
select_counter is 155
Heartbeat CPU 0 instructions: 44000000 cycles: 85611738 heartbeat IPC: 0.747988 cumulative IPC: 0.417443 (Simulation time: 0 hr 15 min 28 sec) 
select_counter is 87
Heartbeat CPU 0 instructions: 45000003 cycles: 87781734 heartbeat IPC: 0.460832 cumulative IPC: 0.418569 (Simulation time: 0 hr 15 min 47 sec) 
select_counter is 49
Heartbeat CPU 0 instructions: 46000003 cycles: 90497529 heartbeat IPC: 0.368216 cumulative IPC: 0.416985 (Simulation time: 0 hr 16 min 10 sec) 
select_counter is 164
Heartbeat CPU 0 instructions: 47000001 cycles: 92959755 heartbeat IPC: 0.406136 cumulative IPC: 0.416684 (Simulation time: 0 hr 16 min 30 sec) 
select_counter is 167
Heartbeat CPU 0 instructions: 48000000 cycles: 95494883 heartbeat IPC: 0.394457 cumulative IPC: 0.416067 (Simulation time: 0 hr 16 min 50 sec) 
select_counter is 159
Heartbeat CPU 0 instructions: 49000000 cycles: 98939867 heartbeat IPC: 0.290277 cumulative IPC: 0.411495 (Simulation time: 0 hr 17 min 38 sec) 
select_counter is 635
Heartbeat CPU 0 instructions: 50000003 cycles: 104812011 heartbeat IPC: 0.170296 cumulative IPC: 0.397423 (Simulation time: 0 hr 18 min 11 sec) 
select_counter is 717
Heartbeat CPU 0 instructions: 51000002 cycles: 107284732 heartbeat IPC: 0.404412 cumulative IPC: 0.39759 (Simulation time: 0 hr 18 min 43 sec) 
select_counter is 1020
Heartbeat CPU 0 instructions: 52000000 cycles: 111300353 heartbeat IPC: 0.249027 cumulative IPC: 0.392022 (Simulation time: 0 hr 19 min 11 sec) 
select_counter is 1021
Heartbeat CPU 0 instructions: 53000003 cycles: 113996662 heartbeat IPC: 0.370878 cumulative IPC: 0.391503 (Simulation time: 0 hr 19 min 38 sec) 
select_counter is 1020
Heartbeat CPU 0 instructions: 54000000 cycles: 116531485 heartbeat IPC: 0.394504 cumulative IPC: 0.391571 (Simulation time: 0 hr 20 min 5 sec) 
select_counter is 1023
Heartbeat CPU 0 instructions: 55000002 cycles: 120224227 heartbeat IPC: 0.270802 cumulative IPC: 0.387728 (Simulation time: 0 hr 20 min 37 sec) 
select_counter is 1007
Heartbeat CPU 0 instructions: 56000000 cycles: 123840686 heartbeat IPC: 0.276513 cumulative IPC: 0.384367 (Simulation time: 0 hr 21 min 7 sec) 
select_counter is 889
Heartbeat CPU 0 instructions: 57000003 cycles: 126461261 heartbeat IPC: 0.381597 cumulative IPC: 0.384308 (Simulation time: 0 hr 21 min 35 sec) 
select_counter is 803
Heartbeat CPU 0 instructions: 58000002 cycles: 128677584 heartbeat IPC: 0.451197 cumulative IPC: 0.385499 (Simulation time: 0 hr 22 min 0 sec) 
select_counter is 780
Heartbeat CPU 0 instructions: 59000002 cycles: 130226679 heartbeat IPC: 0.645538 cumulative IPC: 0.388694 (Simulation time: 0 hr 22 min 23 sec) 
select_counter is 986
Heartbeat CPU 0 instructions: 60000000 cycles: 131420828 heartbeat IPC: 0.837415 cumulative IPC: 0.392905 (Simulation time: 0 hr 22 min 42 sec) 
select_counter is 1022
Heartbeat CPU 0 instructions: 61000002 cycles: 134142364 heartbeat IPC: 0.36744 cumulative IPC: 0.392372 (Simulation time: 0 hr 23 min 11 sec) 
select_counter is 1016
Heartbeat CPU 0 instructions: 62000002 cycles: 136805250 heartbeat IPC: 0.375532 cumulative IPC: 0.392034 (Simulation time: 0 hr 23 min 39 sec) 
select_counter is 652
Heartbeat CPU 0 instructions: 63000002 cycles: 138962419 heartbeat IPC: 0.463571 cumulative IPC: 0.393178 (Simulation time: 0 hr 24 min 4 sec) 
select_counter is 288
Heartbeat CPU 0 instructions: 64000000 cycles: 141330769 heartbeat IPC: 0.422234 cumulative IPC: 0.39368 (Simulation time: 0 hr 24 min 26 sec) 
select_counter is 308
Heartbeat CPU 0 instructions: 65000000 cycles: 145007961 heartbeat IPC: 0.271947 cumulative IPC: 0.390502 (Simulation time: 0 hr 24 min 56 sec) 
select_counter is 264
Heartbeat CPU 0 instructions: 66000001 cycles: 146320890 heartbeat IPC: 0.761657 cumulative IPC: 0.39393 (Simulation time: 0 hr 25 min 12 sec) 
select_counter is 173
Heartbeat CPU 0 instructions: 67000000 cycles: 147650159 heartbeat IPC: 0.752292 cumulative IPC: 0.39725 (Simulation time: 0 hr 25 min 30 sec) 
select_counter is 112
Heartbeat CPU 0 instructions: 68000000 cycles: 150911382 heartbeat IPC: 0.306633 cumulative IPC: 0.395236 (Simulation time: 0 hr 25 min 56 sec) 
select_counter is 947
Heartbeat CPU 0 instructions: 69000000 cycles: 153545776 heartbeat IPC: 0.379594 cumulative IPC: 0.39496 (Simulation time: 0 hr 26 min 15 sec) 
select_counter is 924
Heartbeat CPU 0 instructions: 70000003 cycles: 156055932 heartbeat IPC: 0.398383 cumulative IPC: 0.395016 (Simulation time: 0 hr 26 min 35 sec) 
select_counter is 864
Heartbeat CPU 0 instructions: 71000000 cycles: 158500215 heartbeat IPC: 0.409117 cumulative IPC: 0.39524 (Simulation time: 0 hr 27 min 4 sec) 
select_counter is 832
Heartbeat CPU 0 instructions: 72000000 cycles: 161042918 heartbeat IPC: 0.393282 cumulative IPC: 0.395208 (Simulation time: 0 hr 27 min 27 sec) 
select_counter is 915
Heartbeat CPU 0 instructions: 73000002 cycles: 163755272 heartbeat IPC: 0.368684 cumulative IPC: 0.394757 (Simulation time: 0 hr 27 min 54 sec) 
select_counter is 591
Heartbeat CPU 0 instructions: 74000000 cycles: 165730189 heartbeat IPC: 0.506349 cumulative IPC: 0.396121 (Simulation time: 0 hr 28 min 13 sec) 
select_counter is 522
Heartbeat CPU 0 instructions: 75000002 cycles: 167069408 heartbeat IPC: 0.746705 cumulative IPC: 0.399003 (Simulation time: 0 hr 28 min 28 sec) 
select_counter is 490
Heartbeat CPU 0 instructions: 76000000 cycles: 170208783 heartbeat IPC: 0.318534 cumulative IPC: 0.397482 (Simulation time: 0 hr 28 min 52 sec) 
select_counter is 438
Heartbeat CPU 0 instructions: 77000000 cycles: 172621857 heartbeat IPC: 0.414409 cumulative IPC: 0.397724 (Simulation time: 0 hr 29 min 11 sec) 
select_counter is 498
Heartbeat CPU 0 instructions: 78000003 cycles: 175069327 heartbeat IPC: 0.408586 cumulative IPC: 0.39788 (Simulation time: 0 hr 29 min 29 sec) 
select_counter is 469
Heartbeat CPU 0 instructions: 79000001 cycles: 178199055 heartbeat IPC: 0.319516 cumulative IPC: 0.396471 (Simulation time: 0 hr 29 min 58 sec) 
select_counter is 606
Heartbeat CPU 0 instructions: 80000000 cycles: 180668212 heartbeat IPC: 0.404996 cumulative IPC: 0.39659 (Simulation time: 0 hr 30 min 21 sec) 
select_counter is 518
Heartbeat CPU 0 instructions: 81000003 cycles: 183622473 heartbeat IPC: 0.338495 cumulative IPC: 0.395634 (Simulation time: 0 hr 30 min 48 sec) 
select_counter is 308
Heartbeat CPU 0 instructions: 82000000 cycles: 185349460 heartbeat IPC: 0.579041 cumulative IPC: 0.397382 (Simulation time: 0 hr 31 min 4 sec) 
select_counter is 255
Heartbeat CPU 0 instructions: 83000001 cycles: 186670244 heartbeat IPC: 0.757127 cumulative IPC: 0.399985 (Simulation time: 0 hr 31 min 20 sec) 
select_counter is 260
Heartbeat CPU 0 instructions: 84000000 cycles: 189847295 heartbeat IPC: 0.314757 cumulative IPC: 0.398527 (Simulation time: 0 hr 31 min 47 sec) 
select_counter is 243
Heartbeat CPU 0 instructions: 85000000 cycles: 192228992 heartbeat IPC: 0.419869 cumulative IPC: 0.398797 (Simulation time: 0 hr 32 min 6 sec) 
select_counter is 356
Heartbeat CPU 0 instructions: 86000000 cycles: 194765474 heartbeat IPC: 0.394247 cumulative IPC: 0.398737 (Simulation time: 0 hr 32 min 25 sec) 
select_counter is 390
Heartbeat CPU 0 instructions: 87000000 cycles: 197686441 heartbeat IPC: 0.342352 cumulative IPC: 0.397886 (Simulation time: 0 hr 32 min 52 sec) 
select_counter is 426
Heartbeat CPU 0 instructions: 88000000 cycles: 199867824 heartbeat IPC: 0.458425 cumulative IPC: 0.39856 (Simulation time: 0 hr 33 min 14 sec) 
select_counter is 338
Heartbeat CPU 0 instructions: 89000001 cycles: 203173258 heartbeat IPC: 0.302532 cumulative IPC: 0.396966 (Simulation time: 0 hr 33 min 41 sec) 
select_counter is 192
Heartbeat CPU 0 instructions: 90000002 cycles: 204509593 heartbeat IPC: 0.748316 cumulative IPC: 0.399309 (Simulation time: 0 hr 33 min 55 sec) 
select_counter is 159
Heartbeat CPU 0 instructions: 91000000 cycles: 205910920 heartbeat IPC: 0.713608 cumulative IPC: 0.401492 (Simulation time: 0 hr 34 min 11 sec) 
select_counter is 166
Heartbeat CPU 0 instructions: 92000000 cycles: 209030377 heartbeat IPC: 0.320569 cumulative IPC: 0.40026 (Simulation time: 0 hr 34 min 34 sec) 
select_counter is 147
Heartbeat CPU 0 instructions: 93000000 cycles: 211598775 heartbeat IPC: 0.389348 cumulative IPC: 0.400125 (Simulation time: 0 hr 34 min 51 sec) 
select_counter is 181
Heartbeat CPU 0 instructions: 94000001 cycles: 214031979 heartbeat IPC: 0.410981 cumulative IPC: 0.400251 (Simulation time: 0 hr 35 min 8 sec) 
select_counter is 132
Heartbeat CPU 0 instructions: 95000003 cycles: 217212725 heartbeat IPC: 0.314392 cumulative IPC: 0.398969 (Simulation time: 0 hr 35 min 33 sec) 
select_counter is 58
Heartbeat CPU 0 instructions: 96000000 cycles: 219081967 heartbeat IPC: 0.534975 cumulative IPC: 0.400152 (Simulation time: 0 hr 35 min 53 sec) 
select_counter is 854
Heartbeat CPU 0 instructions: 97000003 cycles: 222176687 heartbeat IPC: 0.323132 cumulative IPC: 0.399058 (Simulation time: 0 hr 36 min 14 sec) 
select_counter is 640
Heartbeat CPU 0 instructions: 98000003 cycles: 223505115 heartbeat IPC: 0.752769 cumulative IPC: 0.401201 (Simulation time: 0 hr 36 min 28 sec) 
select_counter is 587
Heartbeat CPU 0 instructions: 99000000 cycles: 225849682 heartbeat IPC: 0.426517 cumulative IPC: 0.401468 (Simulation time: 0 hr 36 min 46 sec) 
select_counter is 532
Heartbeat CPU 0 instructions: 100000000 cycles: 228489963 heartbeat IPC: 0.378748 cumulative IPC: 0.401201 (Simulation time: 0 hr 37 min 5 sec) 
select_counter is 586
Heartbeat CPU 0 instructions: 101000001 cycles: 230972087 heartbeat IPC: 0.402881 cumulative IPC: 0.401219 (Simulation time: 0 hr 37 min 20 sec) 
select_counter is 562
Heartbeat CPU 0 instructions: 102000002 cycles: 233637000 heartbeat IPC: 0.375247 cumulative IPC: 0.400918 (Simulation time: 0 hr 37 min 37 sec) 
select_counter is 513
Heartbeat CPU 0 instructions: 103000002 cycles: 236582645 heartbeat IPC: 0.339484 cumulative IPC: 0.400139 (Simulation time: 0 hr 37 min 58 sec) 
select_counter is 558
Heartbeat CPU 0 instructions: 104000000 cycles: 238827562 heartbeat IPC: 0.44545 cumulative IPC: 0.400573 (Simulation time: 0 hr 38 min 18 sec) 
select_counter is 354
Heartbeat CPU 0 instructions: 105000000 cycles: 241243697 heartbeat IPC: 0.413884 cumulative IPC: 0.400708 (Simulation time: 0 hr 38 min 34 sec) 
select_counter is 258
Heartbeat CPU 0 instructions: 106000001 cycles: 242567267 heartbeat IPC: 0.755533 cumulative IPC: 0.402678 (Simulation time: 0 hr 38 min 45 sec) 
select_counter is 223
Heartbeat CPU 0 instructions: 107000001 cycles: 245494967 heartbeat IPC: 0.341565 cumulative IPC: 0.401937 (Simulation time: 0 hr 39 min 2 sec) 
select_counter is 278
Heartbeat CPU 0 instructions: 108000000 cycles: 247744757 heartbeat IPC: 0.444485 cumulative IPC: 0.40233 (Simulation time: 0 hr 39 min 15 sec) 
select_counter is 321
Heartbeat CPU 0 instructions: 109000003 cycles: 250221541 heartbeat IPC: 0.403751 cumulative IPC: 0.402344 (Simulation time: 0 hr 39 min 29 sec) 
select_counter is 332
Heartbeat CPU 0 instructions: 110000001 cycles: 253285321 heartbeat IPC: 0.326394 cumulative IPC: 0.40141 (Simulation time: 0 hr 39 min 46 sec) 
select_counter is 489
Finished CPU 0 instructions: 100000003 cycles: 249121793 cummulative IPC: 0.40141 (Simulation time: 0 hr 39 min 46 sec) 

ChampSim completed all CPUs

Region of Interest Statistics

CPU 0 cummulative IPC: 0.40141 instructions: 100000003 cycles: 249121793
LLC TOTAL     ACCESS:    6596312  HIT:    3155358  MISS:    3440954
LLC LOAD      ACCESS:    1694902  HIT:     761439  MISS:     933463
LLC RFO       ACCESS:     658484  HIT:     271517  MISS:     386967
LLC PREFETCH  ACCESS:    2682274  HIT:    1013244  MISS:    1669030
LLC WRITEBACK ACCESS:    1560652  HIT:    1109158  MISS:     451494
Ship samples: 
25, 51, 85, 100, 133, 177, 220, 244, 285, 315, 335, 367, 406, 429, 475, 481, 518, 568, 586, 616, 649, 693, 724, 758, 773, 820, 842, 880, 922, 947, 969, 1013, 1027, 1076, 1110, 1136, 1160, 1184, 1237, 1251, 1284, 1323, 1366, 1376, 1439, 1453, 1484, 1524, 1552, 1579, 1628, 1650, 1664, 1698, 1731, 1789, 1821, 1845, 1861, 1892, 1929, 1964, 2004, 2021, 
Lime duel samples: 
5, 40, 68, 125, 159, 174, 215, 237, 287, 290, 348, 355, 400, 426, 456, 498, 515, 549, 579, 631, 664, 703, 726, 756, 784, 819, 835, 895, 914, 931, 989, 1017, 1036, 1069, 1115, 1140, 1164, 1189, 1246, 1264, 1288, 1335, 1358, 1404, 1424, 1459, 1480, 1507, 1551, 1576, 1606, 1659, 1668, 1715, 1749, 1765, 1799, 1833, 1875, 1909, 1924, 1969, 2005, 2016, 
Lime samples: 
5, 159, 287, 400, 515, 664, 784, 914, 1036, 1164, 1288, 1424, 1551, 1668, 1799, 1924, 
Insertion Distribution: 
	LOAD 121910 0 0 0 0 0 61289 339562 
	RFO 50181 0 0 0 0 0 38533 101021 
	PREF 0 19293 0 0 0 0 105012 830716 
	WRITEBACK 0 0 0 0 0 0 0 243955 
Total Prefetch Downgrades: 37440
