
*** ChampSim Multicore Out-of-Order Simulator ***

Warmup Instructions: 10000000
Simulation Instructions: 100000000
Configuration: 2
Number of CPUs: 1
LLC sets: 2048
LLC ways: 16
Off-chip DRAM Channels: 1 Width: 64-bit Data Rate: 1600 MT/s

CPU 0 runs /datasets/cs240c-wi22-a00-public/data/Assignment2-gz/bzip2_259B.trace.gz
CPU 0 L1D next line prefetcher
CPU 0 L2C IP-based stride prefetcher
Heartbeat CPU 0 instructions: 1000002 cycles: 428875 heartbeat IPC: 2.33169 cumulative IPC: 2.33169 (Simulation time: 0 hr 0 min 22 sec) 
select_counter is 510
Heartbeat CPU 0 instructions: 2000003 cycles: 861057 heartbeat IPC: 2.31384 cumulative IPC: 2.32273 (Simulation time: 0 hr 0 min 44 sec) 
select_counter is 510
Heartbeat CPU 0 instructions: 3000001 cycles: 1286790 heartbeat IPC: 2.34889 cumulative IPC: 2.33138 (Simulation time: 0 hr 1 min 7 sec) 
select_counter is 510
Heartbeat CPU 0 instructions: 4000000 cycles: 1685062 heartbeat IPC: 2.51084 cumulative IPC: 2.3738 (Simulation time: 0 hr 1 min 30 sec) 
select_counter is 511
Heartbeat CPU 0 instructions: 5000001 cycles: 2103495 heartbeat IPC: 2.38987 cumulative IPC: 2.377 (Simulation time: 0 hr 1 min 53 sec) 
select_counter is 511
Heartbeat CPU 0 instructions: 6000001 cycles: 2532858 heartbeat IPC: 2.32903 cumulative IPC: 2.36887 (Simulation time: 0 hr 2 min 15 sec) 
select_counter is 511
Heartbeat CPU 0 instructions: 7000003 cycles: 2961906 heartbeat IPC: 2.33075 cumulative IPC: 2.36334 (Simulation time: 0 hr 2 min 39 sec) 
select_counter is 511
Heartbeat CPU 0 instructions: 8000000 cycles: 3391719 heartbeat IPC: 2.32659 cumulative IPC: 2.35869 (Simulation time: 0 hr 3 min 0 sec) 
select_counter is 511
Heartbeat CPU 0 instructions: 9000000 cycles: 3819845 heartbeat IPC: 2.33576 cumulative IPC: 2.35612 (Simulation time: 0 hr 3 min 23 sec) 
select_counter is 511
Heartbeat CPU 0 instructions: 10000002 cycles: 4193917 heartbeat IPC: 2.67329 cumulative IPC: 2.38441 (Simulation time: 0 hr 3 min 40 sec) 
select_counter is 510

Warmup complete CPU 0 instructions: 10000002 cycles: 4193917 (Simulation time: 0 hr 3 min 40 sec) 

Heartbeat CPU 0 instructions: 11000002 cycles: 5030458 heartbeat IPC: 1.1954 cumulative IPC: 1.1954 (Simulation time: 0 hr 4 min 0 sec) 
select_counter is 559
Heartbeat CPU 0 instructions: 12000000 cycles: 6131016 heartbeat IPC: 0.908628 cumulative IPC: 1.03247 (Simulation time: 0 hr 4 min 26 sec) 
select_counter is 397
Heartbeat CPU 0 instructions: 13000002 cycles: 7054417 heartbeat IPC: 1.08296 cumulative IPC: 1.04877 (Simulation time: 0 hr 4 min 50 sec) 
select_counter is 230
Heartbeat CPU 0 instructions: 14000003 cycles: 8001850 heartbeat IPC: 1.05548 cumulative IPC: 1.05044 (Simulation time: 0 hr 5 min 13 sec) 
select_counter is 990
Heartbeat CPU 0 instructions: 15000002 cycles: 9023941 heartbeat IPC: 0.978386 cumulative IPC: 1.03519 (Simulation time: 0 hr 5 min 37 sec) 
select_counter is 887
Heartbeat CPU 0 instructions: 16000000 cycles: 9992320 heartbeat IPC: 1.03265 cumulative IPC: 1.03477 (Simulation time: 0 hr 6 min 2 sec) 
select_counter is 800
Heartbeat CPU 0 instructions: 17000002 cycles: 11100180 heartbeat IPC: 0.902643 cumulative IPC: 1.01357 (Simulation time: 0 hr 6 min 25 sec) 
select_counter is 1023
Heartbeat CPU 0 instructions: 18000001 cycles: 12178239 heartbeat IPC: 0.927592 cumulative IPC: 1.00196 (Simulation time: 0 hr 6 min 52 sec) 
select_counter is 958
Heartbeat CPU 0 instructions: 19000003 cycles: 13121199 heartbeat IPC: 1.06049 cumulative IPC: 1.00815 (Simulation time: 0 hr 7 min 16 sec) 
select_counter is 884
Heartbeat CPU 0 instructions: 20000000 cycles: 14110531 heartbeat IPC: 1.01078 cumulative IPC: 1.00841 (Simulation time: 0 hr 7 min 38 sec) 
select_counter is 861
Heartbeat CPU 0 instructions: 21000001 cycles: 15004721 heartbeat IPC: 1.11833 cumulative IPC: 1.0175 (Simulation time: 0 hr 7 min 59 sec) 
select_counter is 822
Heartbeat CPU 0 instructions: 22000001 cycles: 15905130 heartbeat IPC: 1.11061 cumulative IPC: 1.02466 (Simulation time: 0 hr 8 min 21 sec) 
select_counter is 812
Heartbeat CPU 0 instructions: 23000002 cycles: 16800863 heartbeat IPC: 1.11641 cumulative IPC: 1.03118 (Simulation time: 0 hr 8 min 42 sec) 
select_counter is 777
Heartbeat CPU 0 instructions: 24000000 cycles: 17695106 heartbeat IPC: 1.11826 cumulative IPC: 1.03695 (Simulation time: 0 hr 9 min 2 sec) 
select_counter is 732
Heartbeat CPU 0 instructions: 25000000 cycles: 18587566 heartbeat IPC: 1.1205 cumulative IPC: 1.04213 (Simulation time: 0 hr 9 min 23 sec) 
select_counter is 701
Heartbeat CPU 0 instructions: 26000000 cycles: 19497252 heartbeat IPC: 1.09928 cumulative IPC: 1.04552 (Simulation time: 0 hr 9 min 47 sec) 
select_counter is 653
Heartbeat CPU 0 instructions: 27000003 cycles: 20410062 heartbeat IPC: 1.09552 cumulative IPC: 1.04834 (Simulation time: 0 hr 10 min 12 sec) 
select_counter is 595
Heartbeat CPU 0 instructions: 28000000 cycles: 21313599 heartbeat IPC: 1.10676 cumulative IPC: 1.05142 (Simulation time: 0 hr 10 min 32 sec) 
select_counter is 543
Heartbeat CPU 0 instructions: 29000000 cycles: 22208416 heartbeat IPC: 1.11755 cumulative IPC: 1.05471 (Simulation time: 0 hr 10 min 52 sec) 
select_counter is 478
Heartbeat CPU 0 instructions: 30000000 cycles: 23187378 heartbeat IPC: 1.02149 cumulative IPC: 1.05299 (Simulation time: 0 hr 11 min 15 sec) 
select_counter is 447
Heartbeat CPU 0 instructions: 31000001 cycles: 24095144 heartbeat IPC: 1.10161 cumulative IPC: 1.05521 (Simulation time: 0 hr 11 min 37 sec) 
select_counter is 407
Heartbeat CPU 0 instructions: 32000000 cycles: 24991947 heartbeat IPC: 1.11507 cumulative IPC: 1.05779 (Simulation time: 0 hr 11 min 58 sec) 
select_counter is 404
Heartbeat CPU 0 instructions: 33000002 cycles: 26212404 heartbeat IPC: 0.819367 cumulative IPC: 1.04458 (Simulation time: 0 hr 12 min 21 sec) 
select_counter is 330
Heartbeat CPU 0 instructions: 34000003 cycles: 27548504 heartbeat IPC: 0.748448 cumulative IPC: 1.02764 (Simulation time: 0 hr 12 min 46 sec) 
select_counter is 188
Heartbeat CPU 0 instructions: 35000001 cycles: 28624338 heartbeat IPC: 0.92951 cumulative IPC: 1.02331 (Simulation time: 0 hr 13 min 12 sec) 
select_counter is 115
Heartbeat CPU 0 instructions: 36000000 cycles: 29804276 heartbeat IPC: 0.847501 cumulative IPC: 1.01521 (Simulation time: 0 hr 13 min 33 sec) 
select_counter is 118
Heartbeat CPU 0 instructions: 37000002 cycles: 30847284 heartbeat IPC: 0.958767 cumulative IPC: 1.01301 (Simulation time: 0 hr 13 min 52 sec) 
select_counter is 118
Heartbeat CPU 0 instructions: 38000003 cycles: 31962664 heartbeat IPC: 0.896556 cumulative IPC: 1.00833 (Simulation time: 0 hr 14 min 12 sec) 
select_counter is 118
Heartbeat CPU 0 instructions: 39000001 cycles: 33106637 heartbeat IPC: 0.874145 cumulative IPC: 1.00302 (Simulation time: 0 hr 14 min 30 sec) 
select_counter is 116
Heartbeat CPU 0 instructions: 40000000 cycles: 34176063 heartbeat IPC: 0.93508 cumulative IPC: 1.0006 (Simulation time: 0 hr 14 min 50 sec) 
select_counter is 125
Heartbeat CPU 0 instructions: 41000001 cycles: 35365916 heartbeat IPC: 0.840441 cumulative IPC: 0.994482 (Simulation time: 0 hr 15 min 9 sec) 
select_counter is 132
Heartbeat CPU 0 instructions: 42000000 cycles: 36575738 heartbeat IPC: 0.826567 cumulative IPC: 0.988209 (Simulation time: 0 hr 15 min 28 sec) 
select_counter is 132
Heartbeat CPU 0 instructions: 43000003 cycles: 37792251 heartbeat IPC: 0.822024 cumulative IPC: 0.982192 (Simulation time: 0 hr 15 min 47 sec) 
select_counter is 132
Heartbeat CPU 0 instructions: 44000000 cycles: 39005504 heartbeat IPC: 0.824228 cumulative IPC: 0.976686 (Simulation time: 0 hr 16 min 7 sec) 
select_counter is 129
Heartbeat CPU 0 instructions: 45000000 cycles: 40227245 heartbeat IPC: 0.818504 cumulative IPC: 0.971323 (Simulation time: 0 hr 16 min 29 sec) 
select_counter is 134
Heartbeat CPU 0 instructions: 46000002 cycles: 41466666 heartbeat IPC: 0.80683 cumulative IPC: 0.965853 (Simulation time: 0 hr 16 min 53 sec) 
select_counter is 137
Heartbeat CPU 0 instructions: 47000000 cycles: 42696760 heartbeat IPC: 0.812944 cumulative IPC: 0.960968 (Simulation time: 0 hr 17 min 13 sec) 
select_counter is 143
Heartbeat CPU 0 instructions: 48000000 cycles: 43934933 heartbeat IPC: 0.807642 cumulative IPC: 0.956191 (Simulation time: 0 hr 17 min 32 sec) 
select_counter is 146
Heartbeat CPU 0 instructions: 49000003 cycles: 45204315 heartbeat IPC: 0.787787 cumulative IPC: 0.950978 (Simulation time: 0 hr 17 min 52 sec) 
select_counter is 143
Heartbeat CPU 0 instructions: 50000001 cycles: 46243561 heartbeat IPC: 0.962234 cumulative IPC: 0.951257 (Simulation time: 0 hr 18 min 14 sec) 
select_counter is 152
Heartbeat CPU 0 instructions: 51000002 cycles: 47407882 heartbeat IPC: 0.858871 cumulative IPC: 0.948767 (Simulation time: 0 hr 18 min 37 sec) 
select_counter is 150
Heartbeat CPU 0 instructions: 52000000 cycles: 48526043 heartbeat IPC: 0.894324 cumulative IPC: 0.947394 (Simulation time: 0 hr 18 min 57 sec) 
select_counter is 149
Heartbeat CPU 0 instructions: 53000001 cycles: 49722123 heartbeat IPC: 0.836065 cumulative IPC: 0.944469 (Simulation time: 0 hr 19 min 16 sec) 
select_counter is 155
Heartbeat CPU 0 instructions: 54000000 cycles: 50947565 heartbeat IPC: 0.816031 cumulative IPC: 0.941103 (Simulation time: 0 hr 19 min 37 sec) 
select_counter is 154
Heartbeat CPU 0 instructions: 55000000 cycles: 52099169 heartbeat IPC: 0.868354 cumulative IPC: 0.939354 (Simulation time: 0 hr 19 min 56 sec) 
select_counter is 172
Heartbeat CPU 0 instructions: 56000000 cycles: 53323100 heartbeat IPC: 0.81704 cumulative IPC: 0.936307 (Simulation time: 0 hr 20 min 16 sec) 
select_counter is 172
Heartbeat CPU 0 instructions: 57000000 cycles: 54544152 heartbeat IPC: 0.818966 cumulative IPC: 0.933461 (Simulation time: 0 hr 20 min 36 sec) 
select_counter is 180
Heartbeat CPU 0 instructions: 58000002 cycles: 55577364 heartbeat IPC: 0.967858 cumulative IPC: 0.934153 (Simulation time: 0 hr 20 min 55 sec) 
select_counter is 213
Heartbeat CPU 0 instructions: 59000000 cycles: 56678404 heartbeat IPC: 0.90823 cumulative IPC: 0.933609 (Simulation time: 0 hr 21 min 14 sec) 
select_counter is 215
Heartbeat CPU 0 instructions: 60000000 cycles: 57858395 heartbeat IPC: 0.847464 cumulative IPC: 0.931715 (Simulation time: 0 hr 21 min 35 sec) 
select_counter is 222
Heartbeat CPU 0 instructions: 61000000 cycles: 59002539 heartbeat IPC: 0.874016 cumulative IPC: 0.930511 (Simulation time: 0 hr 21 min 56 sec) 
select_counter is 221
Heartbeat CPU 0 instructions: 62000002 cycles: 59847426 heartbeat IPC: 1.18359 cumulative IPC: 0.934353 (Simulation time: 0 hr 22 min 14 sec) 
select_counter is 120
Heartbeat CPU 0 instructions: 63000003 cycles: 60737903 heartbeat IPC: 1.12299 cumulative IPC: 0.937323 (Simulation time: 0 hr 22 min 39 sec) 
select_counter is 964
Heartbeat CPU 0 instructions: 64000000 cycles: 61781601 heartbeat IPC: 0.958129 cumulative IPC: 0.9377 (Simulation time: 0 hr 23 min 7 sec) 
select_counter is 911
Heartbeat CPU 0 instructions: 65000003 cycles: 62747608 heartbeat IPC: 1.03519 cumulative IPC: 0.939309 (Simulation time: 0 hr 23 min 33 sec) 
select_counter is 897
Heartbeat CPU 0 instructions: 66000003 cycles: 63699543 heartbeat IPC: 1.05049 cumulative IPC: 0.941087 (Simulation time: 0 hr 23 min 57 sec) 
select_counter is 943
Heartbeat CPU 0 instructions: 67000003 cycles: 64750901 heartbeat IPC: 0.951151 cumulative IPC: 0.941262 (Simulation time: 0 hr 24 min 20 sec) 
select_counter is 1012
Heartbeat CPU 0 instructions: 68000000 cycles: 65820623 heartbeat IPC: 0.93482 cumulative IPC: 0.94115 (Simulation time: 0 hr 24 min 47 sec) 
select_counter is 991
Heartbeat CPU 0 instructions: 69000003 cycles: 66922444 heartbeat IPC: 0.907591 cumulative IPC: 0.940561 (Simulation time: 0 hr 25 min 14 sec) 
select_counter is 963
Heartbeat CPU 0 instructions: 70000003 cycles: 68189568 heartbeat IPC: 0.789189 cumulative IPC: 0.937564 (Simulation time: 0 hr 25 min 39 sec) 
select_counter is 896
Heartbeat CPU 0 instructions: 71000000 cycles: 69619009 heartbeat IPC: 0.699572 cumulative IPC: 0.932364 (Simulation time: 0 hr 26 min 2 sec) 
select_counter is 761
Heartbeat CPU 0 instructions: 72000000 cycles: 70830309 heartbeat IPC: 0.825559 cumulative IPC: 0.930422 (Simulation time: 0 hr 26 min 24 sec) 
select_counter is 701
Heartbeat CPU 0 instructions: 73000003 cycles: 72155297 heartbeat IPC: 0.754726 cumulative IPC: 0.926997 (Simulation time: 0 hr 26 min 48 sec) 
select_counter is 614
Heartbeat CPU 0 instructions: 74000001 cycles: 73420843 heartbeat IPC: 0.790171 cumulative IPC: 0.924496 (Simulation time: 0 hr 27 min 10 sec) 
select_counter is 545
Heartbeat CPU 0 instructions: 75000000 cycles: 74596752 heartbeat IPC: 0.850405 cumulative IPC: 0.923258 (Simulation time: 0 hr 27 min 32 sec) 
select_counter is 476
Heartbeat CPU 0 instructions: 76000000 cycles: 75685417 heartbeat IPC: 0.918556 cumulative IPC: 0.923187 (Simulation time: 0 hr 27 min 54 sec) 
select_counter is 422
Heartbeat CPU 0 instructions: 77000003 cycles: 76644913 heartbeat IPC: 1.04222 cumulative IPC: 0.924763 (Simulation time: 0 hr 28 min 14 sec) 
select_counter is 419
Heartbeat CPU 0 instructions: 78000000 cycles: 77598648 heartbeat IPC: 1.04851 cumulative IPC: 0.926371 (Simulation time: 0 hr 28 min 35 sec) 
select_counter is 393
Heartbeat CPU 0 instructions: 79000003 cycles: 78666505 heartbeat IPC: 0.936458 cumulative IPC: 0.926515 (Simulation time: 0 hr 28 min 58 sec) 
select_counter is 346
Heartbeat CPU 0 instructions: 80000000 cycles: 79875799 heartbeat IPC: 0.826926 cumulative IPC: 0.924924 (Simulation time: 0 hr 29 min 21 sec) 
select_counter is 284
Heartbeat CPU 0 instructions: 81000001 cycles: 81023593 heartbeat IPC: 0.871237 cumulative IPC: 0.924122 (Simulation time: 0 hr 29 min 45 sec) 
select_counter is 241
Heartbeat CPU 0 instructions: 82000000 cycles: 82128932 heartbeat IPC: 0.904699 cumulative IPC: 0.923847 (Simulation time: 0 hr 30 min 7 sec) 
select_counter is 170
Heartbeat CPU 0 instructions: 83000002 cycles: 83179374 heartbeat IPC: 0.951982 cumulative IPC: 0.924221 (Simulation time: 0 hr 30 min 30 sec) 
select_counter is 115
Heartbeat CPU 0 instructions: 84000000 cycles: 84120068 heartbeat IPC: 1.06304 cumulative IPC: 0.925855 (Simulation time: 0 hr 30 min 49 sec) 
select_counter is 100
Heartbeat CPU 0 instructions: 85000003 cycles: 85059601 heartbeat IPC: 1.06436 cumulative IPC: 0.927464 (Simulation time: 0 hr 31 min 10 sec) 
select_counter is 67
Heartbeat CPU 0 instructions: 86000003 cycles: 86100506 heartbeat IPC: 0.960702 cumulative IPC: 0.927886 (Simulation time: 0 hr 31 min 29 sec) 
select_counter is 60
Heartbeat CPU 0 instructions: 87000002 cycles: 87163383 heartbeat IPC: 0.940842 cumulative IPC: 0.928052 (Simulation time: 0 hr 31 min 50 sec) 
select_counter is 5
Heartbeat CPU 0 instructions: 88000000 cycles: 88267457 heartbeat IPC: 0.905735 cumulative IPC: 0.927759 (Simulation time: 0 hr 32 min 10 sec) 
select_counter is 5
Heartbeat CPU 0 instructions: 89000002 cycles: 89273845 heartbeat IPC: 0.993655 cumulative IPC: 0.928539 (Simulation time: 0 hr 32 min 28 sec) 
select_counter is 1020
Heartbeat CPU 0 instructions: 90000001 cycles: 90396996 heartbeat IPC: 0.890351 cumulative IPC: 0.928041 (Simulation time: 0 hr 32 min 46 sec) 
select_counter is 1020
Heartbeat CPU 0 instructions: 91000002 cycles: 91509832 heartbeat IPC: 0.898606 cumulative IPC: 0.927666 (Simulation time: 0 hr 33 min 4 sec) 
select_counter is 1018
Heartbeat CPU 0 instructions: 92000000 cycles: 92548831 heartbeat IPC: 0.962463 cumulative IPC: 0.928075 (Simulation time: 0 hr 33 min 24 sec) 
select_counter is 1013
Heartbeat CPU 0 instructions: 93000000 cycles: 93736557 heartbeat IPC: 0.841945 cumulative IPC: 0.926933 (Simulation time: 0 hr 33 min 43 sec) 
select_counter is 1009
Heartbeat CPU 0 instructions: 94000003 cycles: 94912759 heartbeat IPC: 0.850197 cumulative IPC: 0.925938 (Simulation time: 0 hr 34 min 0 sec) 
select_counter is 1006
Heartbeat CPU 0 instructions: 95000002 cycles: 96097172 heartbeat IPC: 0.844299 cumulative IPC: 0.924886 (Simulation time: 0 hr 34 min 19 sec) 
select_counter is 1007
Heartbeat CPU 0 instructions: 96000000 cycles: 97266160 heartbeat IPC: 0.855439 cumulative IPC: 0.924013 (Simulation time: 0 hr 34 min 37 sec) 
select_counter is 1005
Heartbeat CPU 0 instructions: 97000002 cycles: 98483080 heartbeat IPC: 0.821748 cumulative IPC: 0.922694 (Simulation time: 0 hr 34 min 54 sec) 
select_counter is 1002
Heartbeat CPU 0 instructions: 98000000 cycles: 99714995 heartbeat IPC: 0.811743 cumulative IPC: 0.921263 (Simulation time: 0 hr 35 min 14 sec) 
select_counter is 1002
Heartbeat CPU 0 instructions: 99000000 cycles: 100954672 heartbeat IPC: 0.806662 cumulative IPC: 0.919794 (Simulation time: 0 hr 35 min 32 sec) 
select_counter is 1000
Heartbeat CPU 0 instructions: 100000000 cycles: 102196733 heartbeat IPC: 0.805113 cumulative IPC: 0.918341 (Simulation time: 0 hr 35 min 49 sec) 
select_counter is 1002
Heartbeat CPU 0 instructions: 101000003 cycles: 103344033 heartbeat IPC: 0.871614 cumulative IPC: 0.9178 (Simulation time: 0 hr 36 min 9 sec) 
select_counter is 998
Heartbeat CPU 0 instructions: 102000000 cycles: 104462612 heartbeat IPC: 0.893989 cumulative IPC: 0.917535 (Simulation time: 0 hr 36 min 28 sec) 
select_counter is 993
Heartbeat CPU 0 instructions: 103000000 cycles: 105563969 heartbeat IPC: 0.907971 cumulative IPC: 0.917431 (Simulation time: 0 hr 36 min 45 sec) 
select_counter is 994
Heartbeat CPU 0 instructions: 104000000 cycles: 106717369 heartbeat IPC: 0.867002 cumulative IPC: 0.916863 (Simulation time: 0 hr 37 min 1 sec) 
select_counter is 990
Heartbeat CPU 0 instructions: 105000002 cycles: 107928357 heartbeat IPC: 0.825774 cumulative IPC: 0.9158 (Simulation time: 0 hr 37 min 18 sec) 
select_counter is 987
Heartbeat CPU 0 instructions: 106000001 cycles: 109061917 heartbeat IPC: 0.882176 cumulative IPC: 0.915437 (Simulation time: 0 hr 37 min 36 sec) 
select_counter is 983
Heartbeat CPU 0 instructions: 107000000 cycles: 110264455 heartbeat IPC: 0.831574 cumulative IPC: 0.914486 (Simulation time: 0 hr 37 min 53 sec) 
select_counter is 982
Heartbeat CPU 0 instructions: 108000000 cycles: 111462794 heartbeat IPC: 0.834488 cumulative IPC: 0.913592 (Simulation time: 0 hr 38 min 7 sec) 
select_counter is 983
Heartbeat CPU 0 instructions: 109000000 cycles: 112475137 heartbeat IPC: 0.987808 cumulative IPC: 0.914286 (Simulation time: 0 hr 38 min 23 sec) 
select_counter is 974
Heartbeat CPU 0 instructions: 110000000 cycles: 113635287 heartbeat IPC: 0.861957 cumulative IPC: 0.913731 (Simulation time: 0 hr 38 min 37 sec) 
select_counter is 993
Finished CPU 0 instructions: 100000002 cycles: 109441372 cummulative IPC: 0.913731 (Simulation time: 0 hr 38 min 37 sec) 

ChampSim completed all CPUs

Region of Interest Statistics

CPU 0 cummulative IPC: 0.913731 instructions: 100000002 cycles: 109441372
LLC TOTAL     ACCESS:    1373516  HIT:    1042458  MISS:     331058
LLC LOAD      ACCESS:     396199  HIT:     345910  MISS:      50289
LLC RFO       ACCESS:     104382  HIT:      46238  MISS:      58144
LLC PREFETCH  ACCESS:     675954  HIT:     503785  MISS:     172169
LLC WRITEBACK ACCESS:     196981  HIT:     146525  MISS:      50456
Ship samples: 
18, 41, 64, 122, 145, 166, 216, 228, 275, 318, 331, 355, 408, 430, 473, 498, 541, 565, 593, 620, 645, 672, 725, 743, 792, 816, 855, 890, 899, 943, 962, 1018, 1030, 1067, 1090, 1130, 1172, 1192, 1221, 1253, 1309, 1319, 1347, 1395, 1414, 1448, 1473, 1505, 1559, 1581, 1600, 1644, 1686, 1697, 1730, 1771, 1807, 1839, 1865, 1918, 1939, 1975, 1992, 2044, 
Lime duel samples: 
6, 59, 69, 126, 138, 183, 196, 238, 281, 303, 324, 363, 407, 431, 448, 500, 533, 567, 603, 639, 648, 689, 723, 761, 772, 811, 835, 883, 911, 936, 988, 1009, 1049, 1077, 1093, 1139, 1171, 1214, 1229, 1261, 1296, 1320, 1360, 1398, 1419, 1456, 1480, 1506, 1544, 1580, 1625, 1656, 1684, 1717, 1755, 1767, 1823, 1843, 1874, 1891, 1935, 1958, 2004, 2041, 
Lime samples: 
6, 138, 281, 407, 533, 648, 772, 911, 1049, 1171, 1296, 1419, 1544, 1684, 1823, 1935, 
Insertion Distribution: 
	LOAD 23210 0 0 0 0 0 5015 25 
	RFO 4632 0 0 0 0 0 20013 25997 
	PREF 0 7607 0 0 0 0 32052 40482 
	WRITEBACK 0 0 0 0 0 0 0 16482 
Total Prefetch Downgrades: 19334
