
*** ChampSim Multicore Out-of-Order Simulator ***

Warmup Instructions: 10000000
Simulation Instructions: 100000000
Configuration: 2
Number of CPUs: 1
LLC sets: 2048
LLC ways: 16
Off-chip DRAM Channels: 1 Width: 64-bit Data Rate: 1600 MT/s

CPU 0 runs /datasets/cs240c-wi22-a00-public/data/Assignment2-gz/sphinx3_1339B.trace.gz
CPU 0 L1D next line prefetcher
CPU 0 L2C IP-based stride prefetcher
Heartbeat CPU 0 instructions: 1000000 cycles: 339022 heartbeat IPC: 2.94966 cumulative IPC: 2.94966 (Simulation time: 0 hr 0 min 17 sec) 
select_counter is 512
Heartbeat CPU 0 instructions: 2000001 cycles: 693417 heartbeat IPC: 2.82171 cumulative IPC: 2.88427 (Simulation time: 0 hr 0 min 34 sec) 
select_counter is 526
Heartbeat CPU 0 instructions: 3000000 cycles: 1084504 heartbeat IPC: 2.55697 cumulative IPC: 2.76624 (Simulation time: 0 hr 0 min 53 sec) 
select_counter is 535
Heartbeat CPU 0 instructions: 4000000 cycles: 1530037 heartbeat IPC: 2.2445 cumulative IPC: 2.61432 (Simulation time: 0 hr 1 min 10 sec) 
select_counter is 486
Heartbeat CPU 0 instructions: 5000003 cycles: 1869057 heartbeat IPC: 2.94969 cumulative IPC: 2.67515 (Simulation time: 0 hr 1 min 27 sec) 
select_counter is 370
Heartbeat CPU 0 instructions: 6000002 cycles: 2253251 heartbeat IPC: 2.60285 cumulative IPC: 2.66282 (Simulation time: 0 hr 1 min 45 sec) 
select_counter is 154
Heartbeat CPU 0 instructions: 7000001 cycles: 2717162 heartbeat IPC: 2.15558 cumulative IPC: 2.57622 (Simulation time: 0 hr 2 min 2 sec) 
select_counter is 976
Heartbeat CPU 0 instructions: 8000000 cycles: 3056033 heartbeat IPC: 2.95097 cumulative IPC: 2.61777 (Simulation time: 0 hr 2 min 18 sec) 
select_counter is 916
Heartbeat CPU 0 instructions: 9000003 cycles: 3412600 heartbeat IPC: 2.80453 cumulative IPC: 2.63729 (Simulation time: 0 hr 2 min 34 sec) 
select_counter is 778
Heartbeat CPU 0 instructions: 10000001 cycles: 3799414 heartbeat IPC: 2.58522 cumulative IPC: 2.63199 (Simulation time: 0 hr 2 min 52 sec) 
select_counter is 497

Warmup complete CPU 0 instructions: 10000001 cycles: 3799414 (Simulation time: 0 hr 2 min 52 sec) 

Heartbeat CPU 0 instructions: 11000000 cycles: 4663616 heartbeat IPC: 1.15714 cumulative IPC: 1.15714 (Simulation time: 0 hr 3 min 12 sec) 
select_counter is 429
Heartbeat CPU 0 instructions: 12000000 cycles: 5457093 heartbeat IPC: 1.26028 cumulative IPC: 1.20651 (Simulation time: 0 hr 3 min 31 sec) 
select_counter is 330
Heartbeat CPU 0 instructions: 13000000 cycles: 6778464 heartbeat IPC: 0.75679 cumulative IPC: 1.00703 (Simulation time: 0 hr 3 min 51 sec) 
select_counter is 137
Heartbeat CPU 0 instructions: 14000000 cycles: 7649740 heartbeat IPC: 1.14774 cumulative IPC: 1.03887 (Simulation time: 0 hr 4 min 10 sec) 
select_counter is 984
Heartbeat CPU 0 instructions: 15000001 cycles: 8480319 heartbeat IPC: 1.20398 cumulative IPC: 1.06817 (Simulation time: 0 hr 4 min 30 sec) 
select_counter is 934
Heartbeat CPU 0 instructions: 16000000 cycles: 9489459 heartbeat IPC: 0.990942 cumulative IPC: 1.05447 (Simulation time: 0 hr 4 min 51 sec) 
select_counter is 767
Heartbeat CPU 0 instructions: 17000001 cycles: 10811306 heartbeat IPC: 0.756518 cumulative IPC: 0.998304 (Simulation time: 0 hr 5 min 13 sec) 
select_counter is 684
Heartbeat CPU 0 instructions: 18000003 cycles: 11869262 heartbeat IPC: 0.945221 cumulative IPC: 0.991345 (Simulation time: 0 hr 5 min 33 sec) 
select_counter is 631
Heartbeat CPU 0 instructions: 19000002 cycles: 12704918 heartbeat IPC: 1.19666 cumulative IPC: 1.01061 (Simulation time: 0 hr 5 min 52 sec) 
select_counter is 545
Heartbeat CPU 0 instructions: 20000000 cycles: 13534295 heartbeat IPC: 1.20572 cumulative IPC: 1.02723 (Simulation time: 0 hr 6 min 12 sec) 
select_counter is 504
Heartbeat CPU 0 instructions: 21000000 cycles: 14675906 heartbeat IPC: 0.875955 cumulative IPC: 1.01136 (Simulation time: 0 hr 6 min 32 sec) 
select_counter is 328
Heartbeat CPU 0 instructions: 22000000 cycles: 15656410 heartbeat IPC: 1.01988 cumulative IPC: 1.01206 (Simulation time: 0 hr 6 min 51 sec) 
select_counter is 168
Heartbeat CPU 0 instructions: 23000003 cycles: 16505792 heartbeat IPC: 1.17733 cumulative IPC: 1.02311 (Simulation time: 0 hr 7 min 10 sec) 
select_counter is 158
Heartbeat CPU 0 instructions: 24000000 cycles: 17425222 heartbeat IPC: 1.08763 cumulative IPC: 1.02746 (Simulation time: 0 hr 7 min 30 sec) 
select_counter is 57
Heartbeat CPU 0 instructions: 25000001 cycles: 18352718 heartbeat IPC: 1.07817 cumulative IPC: 1.03069 (Simulation time: 0 hr 7 min 49 sec) 
select_counter is 885
Heartbeat CPU 0 instructions: 26000003 cycles: 19158109 heartbeat IPC: 1.24164 cumulative IPC: 1.04176 (Simulation time: 0 hr 8 min 8 sec) 
select_counter is 870
Heartbeat CPU 0 instructions: 27000000 cycles: 19956006 heartbeat IPC: 1.25329 cumulative IPC: 1.0522 (Simulation time: 0 hr 8 min 27 sec) 
select_counter is 806
Heartbeat CPU 0 instructions: 28000000 cycles: 20870445 heartbeat IPC: 1.09357 cumulative IPC: 1.05442 (Simulation time: 0 hr 8 min 46 sec) 
select_counter is 607
Heartbeat CPU 0 instructions: 29000003 cycles: 21675955 heartbeat IPC: 1.24145 cumulative IPC: 1.06285 (Simulation time: 0 hr 9 min 5 sec) 
select_counter is 579
Heartbeat CPU 0 instructions: 30000003 cycles: 22466938 heartbeat IPC: 1.26425 cumulative IPC: 1.07138 (Simulation time: 0 hr 9 min 23 sec) 
select_counter is 521
Heartbeat CPU 0 instructions: 31000002 cycles: 23354073 heartbeat IPC: 1.12722 cumulative IPC: 1.07391 (Simulation time: 0 hr 9 min 42 sec) 
select_counter is 352
Heartbeat CPU 0 instructions: 32000000 cycles: 24207712 heartbeat IPC: 1.17145 cumulative IPC: 1.07799 (Simulation time: 0 hr 10 min 1 sec) 
select_counter is 303
Heartbeat CPU 0 instructions: 33000001 cycles: 25010550 heartbeat IPC: 1.24558 cumulative IPC: 1.08434 (Simulation time: 0 hr 10 min 22 sec) 
select_counter is 260
Heartbeat CPU 0 instructions: 34000001 cycles: 26367393 heartbeat IPC: 0.737005 cumulative IPC: 1.06345 (Simulation time: 0 hr 10 min 44 sec) 
select_counter is 159
Heartbeat CPU 0 instructions: 35000000 cycles: 27277689 heartbeat IPC: 1.09854 cumulative IPC: 1.06481 (Simulation time: 0 hr 11 min 3 sec) 
select_counter is 48
Heartbeat CPU 0 instructions: 36000000 cycles: 28141613 heartbeat IPC: 1.15751 cumulative IPC: 1.0681 (Simulation time: 0 hr 11 min 23 sec) 
select_counter is 52
Heartbeat CPU 0 instructions: 37000003 cycles: 29129190 heartbeat IPC: 1.01258 cumulative IPC: 1.06594 (Simulation time: 0 hr 11 min 43 sec) 
select_counter is 989
Heartbeat CPU 0 instructions: 38000000 cycles: 30273219 heartbeat IPC: 0.874101 cumulative IPC: 1.05765 (Simulation time: 0 hr 12 min 2 sec) 
select_counter is 837
Heartbeat CPU 0 instructions: 39000000 cycles: 31140760 heartbeat IPC: 1.15268 cumulative IPC: 1.06066 (Simulation time: 0 hr 12 min 21 sec) 
select_counter is 811
Heartbeat CPU 0 instructions: 40000000 cycles: 31967440 heartbeat IPC: 1.20966 cumulative IPC: 1.06504 (Simulation time: 0 hr 12 min 42 sec) 
select_counter is 782
Heartbeat CPU 0 instructions: 41000000 cycles: 33141774 heartbeat IPC: 0.851546 cumulative IPC: 1.05649 (Simulation time: 0 hr 13 min 1 sec) 
select_counter is 662
Heartbeat CPU 0 instructions: 42000002 cycles: 34000638 heartbeat IPC: 1.16433 cumulative IPC: 1.05956 (Simulation time: 0 hr 13 min 20 sec) 
select_counter is 537
Heartbeat CPU 0 instructions: 43000001 cycles: 34852400 heartbeat IPC: 1.17404 cumulative IPC: 1.0627 (Simulation time: 0 hr 13 min 40 sec) 
select_counter is 541
Heartbeat CPU 0 instructions: 44000000 cycles: 35864047 heartbeat IPC: 0.988486 cumulative IPC: 1.06036 (Simulation time: 0 hr 13 min 59 sec) 
select_counter is 455
Heartbeat CPU 0 instructions: 45000002 cycles: 36856115 heartbeat IPC: 1.008 cumulative IPC: 1.05879 (Simulation time: 0 hr 14 min 19 sec) 
select_counter is 312
Heartbeat CPU 0 instructions: 46000003 cycles: 37684889 heartbeat IPC: 1.2066 cumulative IPC: 1.0624 (Simulation time: 0 hr 14 min 38 sec) 
select_counter is 310
Heartbeat CPU 0 instructions: 47000001 cycles: 38517052 heartbeat IPC: 1.20169 cumulative IPC: 1.06574 (Simulation time: 0 hr 14 min 56 sec) 
select_counter is 290
Heartbeat CPU 0 instructions: 48000000 cycles: 39512817 heartbeat IPC: 1.00425 cumulative IPC: 1.06403 (Simulation time: 0 hr 15 min 15 sec) 
select_counter is 152
Heartbeat CPU 0 instructions: 49000000 cycles: 40340186 heartbeat IPC: 1.20865 cumulative IPC: 1.0673 (Simulation time: 0 hr 15 min 33 sec) 
select_counter is 123
Heartbeat CPU 0 instructions: 50000000 cycles: 41160189 heartbeat IPC: 1.21951 cumulative IPC: 1.07064 (Simulation time: 0 hr 15 min 52 sec) 
select_counter is 109
Heartbeat CPU 0 instructions: 51000003 cycles: 42352872 heartbeat IPC: 0.838448 cumulative IPC: 1.06346 (Simulation time: 0 hr 16 min 15 sec) 
select_counter is 5
Heartbeat CPU 0 instructions: 52000000 cycles: 43156053 heartbeat IPC: 1.24505 cumulative IPC: 1.06716 (Simulation time: 0 hr 16 min 34 sec) 
select_counter is 921
Heartbeat CPU 0 instructions: 53000002 cycles: 43986947 heartbeat IPC: 1.20353 cumulative IPC: 1.06998 (Simulation time: 0 hr 16 min 53 sec) 
select_counter is 930
Heartbeat CPU 0 instructions: 54000003 cycles: 45105198 heartbeat IPC: 0.894255 cumulative IPC: 1.06523 (Simulation time: 0 hr 17 min 13 sec) 
select_counter is 814
Heartbeat CPU 0 instructions: 55000001 cycles: 45993413 heartbeat IPC: 1.12585 cumulative IPC: 1.0665 (Simulation time: 0 hr 17 min 32 sec) 
select_counter is 704
Heartbeat CPU 0 instructions: 56000000 cycles: 46809780 heartbeat IPC: 1.22494 cumulative IPC: 1.06951 (Simulation time: 0 hr 17 min 51 sec) 
select_counter is 670
Heartbeat CPU 0 instructions: 57000000 cycles: 47758929 heartbeat IPC: 1.05358 cumulative IPC: 1.06917 (Simulation time: 0 hr 18 min 11 sec) 
select_counter is 621
Heartbeat CPU 0 instructions: 58000000 cycles: 48816217 heartbeat IPC: 0.945816 cumulative IPC: 1.06627 (Simulation time: 0 hr 18 min 30 sec) 
select_counter is 487
Heartbeat CPU 0 instructions: 59000001 cycles: 49620652 heartbeat IPC: 1.24311 cumulative IPC: 1.06937 (Simulation time: 0 hr 18 min 48 sec) 
select_counter is 417
Heartbeat CPU 0 instructions: 60000000 cycles: 50445212 heartbeat IPC: 1.21277 cumulative IPC: 1.07191 (Simulation time: 0 hr 19 min 7 sec) 
select_counter is 419
Heartbeat CPU 0 instructions: 61000000 cycles: 51772242 heartbeat IPC: 0.753562 cumulative IPC: 1.0631 (Simulation time: 0 hr 19 min 28 sec) 
select_counter is 344
Heartbeat CPU 0 instructions: 62000002 cycles: 52916272 heartbeat IPC: 0.874105 cumulative IPC: 1.0587 (Simulation time: 0 hr 19 min 47 sec) 
select_counter is 343
Heartbeat CPU 0 instructions: 63000003 cycles: 53727562 heartbeat IPC: 1.23261 cumulative IPC: 1.06153 (Simulation time: 0 hr 20 min 6 sec) 
select_counter is 245
Heartbeat CPU 0 instructions: 64000000 cycles: 54556646 heartbeat IPC: 1.20615 cumulative IPC: 1.06389 (Simulation time: 0 hr 20 min 26 sec) 
select_counter is 227
Heartbeat CPU 0 instructions: 65000000 cycles: 55618621 heartbeat IPC: 0.941642 cumulative IPC: 1.06138 (Simulation time: 0 hr 20 min 46 sec) 
select_counter is 172
Heartbeat CPU 0 instructions: 66000001 cycles: 56588562 heartbeat IPC: 1.03099 cumulative IPC: 1.06082 (Simulation time: 0 hr 21 min 4 sec) 
select_counter is 70
Heartbeat CPU 0 instructions: 67000000 cycles: 57398440 heartbeat IPC: 1.23475 cumulative IPC: 1.06345 (Simulation time: 0 hr 21 min 24 sec) 
select_counter is 26
Heartbeat CPU 0 instructions: 68000000 cycles: 58280469 heartbeat IPC: 1.13375 cumulative IPC: 1.06459 (Simulation time: 0 hr 21 min 44 sec) 
select_counter is 12
Heartbeat CPU 0 instructions: 69000003 cycles: 59390957 heartbeat IPC: 0.900508 cumulative IPC: 1.06131 (Simulation time: 0 hr 22 min 5 sec) 
select_counter is 897
Heartbeat CPU 0 instructions: 70000001 cycles: 60217772 heartbeat IPC: 1.20946 cumulative IPC: 1.06348 (Simulation time: 0 hr 22 min 25 sec) 
select_counter is 815
Heartbeat CPU 0 instructions: 71000001 cycles: 61045570 heartbeat IPC: 1.20802 cumulative IPC: 1.06557 (Simulation time: 0 hr 22 min 45 sec) 
select_counter is 815
Heartbeat CPU 0 instructions: 72000000 cycles: 62212343 heartbeat IPC: 0.857064 cumulative IPC: 1.06141 (Simulation time: 0 hr 23 min 6 sec) 
select_counter is 723
Heartbeat CPU 0 instructions: 73000001 cycles: 63021894 heartbeat IPC: 1.23525 cumulative IPC: 1.06379 (Simulation time: 0 hr 23 min 24 sec) 
select_counter is 609
Heartbeat CPU 0 instructions: 74000000 cycles: 63848162 heartbeat IPC: 1.21026 cumulative IPC: 1.0658 (Simulation time: 0 hr 23 min 47 sec) 
select_counter is 595
Heartbeat CPU 0 instructions: 75000003 cycles: 64900811 heartbeat IPC: 0.949987 cumulative IPC: 1.06381 (Simulation time: 0 hr 24 min 9 sec) 
select_counter is 516
Heartbeat CPU 0 instructions: 76000000 cycles: 65818964 heartbeat IPC: 1.08914 cumulative IPC: 1.06418 (Simulation time: 0 hr 24 min 27 sec) 
select_counter is 385
Heartbeat CPU 0 instructions: 77000002 cycles: 66634131 heartbeat IPC: 1.22674 cumulative IPC: 1.06629 (Simulation time: 0 hr 24 min 47 sec) 
select_counter is 350
Heartbeat CPU 0 instructions: 78000002 cycles: 67542567 heartbeat IPC: 1.10079 cumulative IPC: 1.06678 (Simulation time: 0 hr 25 min 7 sec) 
select_counter is 325
Heartbeat CPU 0 instructions: 79000001 cycles: 68592991 heartbeat IPC: 0.951996 cumulative IPC: 1.06492 (Simulation time: 0 hr 25 min 26 sec) 
select_counter is 148
Heartbeat CPU 0 instructions: 80000000 cycles: 69424454 heartbeat IPC: 1.2027 cumulative IPC: 1.06667 (Simulation time: 0 hr 25 min 47 sec) 
select_counter is 94
Heartbeat CPU 0 instructions: 81000003 cycles: 70257259 heartbeat IPC: 1.20076 cumulative IPC: 1.06835 (Simulation time: 0 hr 26 min 7 sec) 
select_counter is 97
Heartbeat CPU 0 instructions: 82000000 cycles: 71408509 heartbeat IPC: 0.868618 cumulative IPC: 1.06495 (Simulation time: 0 hr 26 min 30 sec) 
select_counter is 992
Heartbeat CPU 0 instructions: 83000001 cycles: 72221573 heartbeat IPC: 1.22992 cumulative IPC: 1.06691 (Simulation time: 0 hr 26 min 51 sec) 
select_counter is 878
Heartbeat CPU 0 instructions: 84000000 cycles: 73059463 heartbeat IPC: 1.19347 cumulative IPC: 1.06844 (Simulation time: 0 hr 27 min 11 sec) 
select_counter is 880
Heartbeat CPU 0 instructions: 85000002 cycles: 74171346 heartbeat IPC: 0.899377 cumulative IPC: 1.06577 (Simulation time: 0 hr 27 min 31 sec) 
select_counter is 801
Heartbeat CPU 0 instructions: 86000003 cycles: 75032230 heartbeat IPC: 1.1616 cumulative IPC: 1.06692 (Simulation time: 0 hr 27 min 50 sec) 
select_counter is 667
Heartbeat CPU 0 instructions: 87000001 cycles: 75859592 heartbeat IPC: 1.20866 cumulative IPC: 1.06855 (Simulation time: 0 hr 28 min 11 sec) 
select_counter is 642
Heartbeat CPU 0 instructions: 88000000 cycles: 76847460 heartbeat IPC: 1.01228 cumulative IPC: 1.06779 (Simulation time: 0 hr 28 min 31 sec) 
select_counter is 595
Heartbeat CPU 0 instructions: 89000000 cycles: 77830318 heartbeat IPC: 1.01744 cumulative IPC: 1.06712 (Simulation time: 0 hr 28 min 51 sec) 
select_counter is 450
Heartbeat CPU 0 instructions: 90000003 cycles: 78638824 heartbeat IPC: 1.23685 cumulative IPC: 1.06896 (Simulation time: 0 hr 29 min 10 sec) 
select_counter is 422
Heartbeat CPU 0 instructions: 91000000 cycles: 79477352 heartbeat IPC: 1.19256 cumulative IPC: 1.07033 (Simulation time: 0 hr 29 min 29 sec) 
select_counter is 423
Heartbeat CPU 0 instructions: 92000000 cycles: 80635103 heartbeat IPC: 0.863744 cumulative IPC: 1.06721 (Simulation time: 0 hr 29 min 50 sec) 
select_counter is 324
Heartbeat CPU 0 instructions: 93000000 cycles: 81422541 heartbeat IPC: 1.26994 cumulative IPC: 1.06927 (Simulation time: 0 hr 30 min 9 sec) 
select_counter is 198
Heartbeat CPU 0 instructions: 94000001 cycles: 82243745 heartbeat IPC: 1.21773 cumulative IPC: 1.07082 (Simulation time: 0 hr 30 min 28 sec) 
select_counter is 194
Heartbeat CPU 0 instructions: 95000002 cycles: 83437155 heartbeat IPC: 0.837936 cumulative IPC: 1.06733 (Simulation time: 0 hr 30 min 47 sec) 
select_counter is 126
Heartbeat CPU 0 instructions: 96000000 cycles: 84249891 heartbeat IPC: 1.23041 cumulative IPC: 1.06898 (Simulation time: 0 hr 31 min 5 sec) 
select_counter is 1012
Heartbeat CPU 0 instructions: 97000002 cycles: 85047350 heartbeat IPC: 1.25399 cumulative IPC: 1.0708 (Simulation time: 0 hr 31 min 24 sec) 
select_counter is 964
Heartbeat CPU 0 instructions: 98000000 cycles: 86122213 heartbeat IPC: 0.930349 cumulative IPC: 1.06896 (Simulation time: 0 hr 31 min 43 sec) 
select_counter is 939
Heartbeat CPU 0 instructions: 99000003 cycles: 87199191 heartbeat IPC: 0.928527 cumulative IPC: 1.06715 (Simulation time: 0 hr 32 min 2 sec) 
select_counter is 852
Heartbeat CPU 0 instructions: 100000000 cycles: 87971491 heartbeat IPC: 1.29483 cumulative IPC: 1.06924 (Simulation time: 0 hr 32 min 21 sec) 
select_counter is 742
Heartbeat CPU 0 instructions: 101000000 cycles: 88813330 heartbeat IPC: 1.18788 cumulative IPC: 1.07041 (Simulation time: 0 hr 32 min 40 sec) 
select_counter is 754
Heartbeat CPU 0 instructions: 102000001 cycles: 90250838 heartbeat IPC: 0.695649 cumulative IPC: 1.06418 (Simulation time: 0 hr 32 min 59 sec) 
select_counter is 741
Heartbeat CPU 0 instructions: 103000000 cycles: 91529209 heartbeat IPC: 0.782245 cumulative IPC: 1.06007 (Simulation time: 0 hr 33 min 19 sec) 
select_counter is 770
Heartbeat CPU 0 instructions: 104000000 cycles: 92462581 heartbeat IPC: 1.07138 cumulative IPC: 1.06019 (Simulation time: 0 hr 33 min 37 sec) 
select_counter is 725
Heartbeat CPU 0 instructions: 105000003 cycles: 93241528 heartbeat IPC: 1.28379 cumulative IPC: 1.06214 (Simulation time: 0 hr 33 min 55 sec) 
select_counter is 645
Heartbeat CPU 0 instructions: 106000000 cycles: 94108058 heartbeat IPC: 1.15402 cumulative IPC: 1.06302 (Simulation time: 0 hr 34 min 12 sec) 
select_counter is 659
Heartbeat CPU 0 instructions: 107000001 cycles: 95543653 heartbeat IPC: 0.696576 cumulative IPC: 1.05729 (Simulation time: 0 hr 34 min 32 sec) 
select_counter is 634
Heartbeat CPU 0 instructions: 108000000 cycles: 96435295 heartbeat IPC: 1.12153 cumulative IPC: 1.05791 (Simulation time: 0 hr 34 min 49 sec) 
select_counter is 577
Heartbeat CPU 0 instructions: 109000000 cycles: 97248904 heartbeat IPC: 1.22909 cumulative IPC: 1.0594 (Simulation time: 0 hr 35 min 8 sec) 
select_counter is 539
Heartbeat CPU 0 instructions: 110000000 cycles: 98361530 heartbeat IPC: 0.898775 cumulative IPC: 1.05751 (Simulation time: 0 hr 35 min 27 sec) 
select_counter is 523
Finished CPU 0 instructions: 100000000 cycles: 94562118 cummulative IPC: 1.05751 (Simulation time: 0 hr 35 min 27 sec) 

ChampSim completed all CPUs

Region of Interest Statistics

CPU 0 cummulative IPC: 1.05751 instructions: 100000000 cycles: 94562118
LLC TOTAL     ACCESS:    1574029  HIT:     831499  MISS:     742530
LLC LOAD      ACCESS:     202274  HIT:     172329  MISS:      29945
LLC RFO       ACCESS:     111354  HIT:     108890  MISS:       2464
LLC PREFETCH  ACCESS:    1127246  HIT:     418309  MISS:     708937
LLC WRITEBACK ACCESS:     133155  HIT:     131971  MISS:       1184
Ship samples: 
0, 33, 67, 119, 133, 180, 213, 253, 282, 310, 347, 369, 410, 421, 455, 490, 525, 545, 594, 630, 655, 676, 713, 761, 784, 831, 853, 866, 916, 937, 963, 1016, 1042, 1057, 1119, 1145, 1181, 1202, 1239, 1250, 1305, 1327, 1360, 1392, 1419, 1454, 1482, 1532, 1551, 1574, 1622, 1655, 1694, 1714, 1759, 1789, 1814, 1832, 1886, 1898, 1938, 1975, 2015, 2041, 
Lime duel samples: 
19, 55, 89, 103, 134, 183, 205, 254, 277, 289, 321, 376, 399, 428, 470, 502, 520, 555, 592, 632, 663, 682, 708, 738, 771, 804, 840, 878, 897, 953, 970, 1009, 1038, 1064, 1098, 1144, 1161, 1214, 1247, 1269, 1287, 1313, 1359, 1394, 1412, 1465, 1486, 1510, 1564, 1597, 1614, 1632, 1683, 1706, 1749, 1780, 1817, 1836, 1862, 1912, 1929, 1976, 2012, 2036, 
Lime samples: 
19, 134, 277, 399, 520, 663, 771, 897, 1038, 1161, 1287, 1412, 1564, 1683, 1817, 1929, 
Insertion Distribution: 
	LOAD 7642 0 0 0 0 0 6123 2203 
	RFO 368 0 0 0 0 0 784 68 
	PREF 0 934 0 0 0 0 59126 318340 
	WRITEBACK 0 0 0 0 0 0 0 971 
Total Prefetch Downgrades: 8565
