
*** ChampSim Multicore Out-of-Order Simulator ***

Warmup Instructions: 10000000
Simulation Instructions: 100000000
Configuration: 2
Number of CPUs: 1
LLC sets: 2048
LLC ways: 16
Off-chip DRAM Channels: 1 Width: 64-bit Data Rate: 1600 MT/s

CPU 0 runs /datasets/cs240c-wi22-a00-public/data/Assignment2-gz/leslie3d_1186B.trace.gz
CPU 0 L1D next line prefetcher
CPU 0 L2C IP-based stride prefetcher
Heartbeat CPU 0 instructions: 1000002 cycles: 564515 heartbeat IPC: 1.77144 cumulative IPC: 1.77144 (Simulation time: 0 hr 0 min 28 sec) 
select_counter is 180
Heartbeat CPU 0 instructions: 2000000 cycles: 1215823 heartbeat IPC: 1.53537 cumulative IPC: 1.64498 (Simulation time: 0 hr 0 min 55 sec) 
select_counter is 113
Heartbeat CPU 0 instructions: 3000000 cycles: 1867532 heartbeat IPC: 1.53443 cumulative IPC: 1.6064 (Simulation time: 0 hr 1 min 25 sec) 
select_counter is 33
Heartbeat CPU 0 instructions: 4000000 cycles: 2473061 heartbeat IPC: 1.65145 cumulative IPC: 1.61743 (Simulation time: 0 hr 1 min 54 sec) 
select_counter is 1022
Heartbeat CPU 0 instructions: 5000000 cycles: 3083405 heartbeat IPC: 1.63842 cumulative IPC: 1.62158 (Simulation time: 0 hr 2 min 22 sec) 
select_counter is 926
Heartbeat CPU 0 instructions: 6000000 cycles: 3735164 heartbeat IPC: 1.53431 cumulative IPC: 1.60636 (Simulation time: 0 hr 2 min 48 sec) 
select_counter is 902
Heartbeat CPU 0 instructions: 7000001 cycles: 4386433 heartbeat IPC: 1.53547 cumulative IPC: 1.59583 (Simulation time: 0 hr 3 min 15 sec) 
select_counter is 868
Heartbeat CPU 0 instructions: 8000000 cycles: 4951015 heartbeat IPC: 1.77122 cumulative IPC: 1.61583 (Simulation time: 0 hr 3 min 40 sec) 
select_counter is 889
Heartbeat CPU 0 instructions: 9000003 cycles: 5602315 heartbeat IPC: 1.5354 cumulative IPC: 1.60648 (Simulation time: 0 hr 4 min 9 sec) 
select_counter is 830
Heartbeat CPU 0 instructions: 10000001 cycles: 6253472 heartbeat IPC: 1.53572 cumulative IPC: 1.59911 (Simulation time: 0 hr 4 min 34 sec) 
select_counter is 771

Warmup complete CPU 0 instructions: 10000001 cycles: 6253472 (Simulation time: 0 hr 4 min 34 sec) 

Heartbeat CPU 0 instructions: 11000001 cycles: 7631388 heartbeat IPC: 0.725734 cumulative IPC: 0.725734 (Simulation time: 0 hr 5 min 3 sec) 
select_counter is 752
Heartbeat CPU 0 instructions: 12000000 cycles: 8870762 heartbeat IPC: 0.806858 cumulative IPC: 0.764149 (Simulation time: 0 hr 5 min 31 sec) 
select_counter is 647
Heartbeat CPU 0 instructions: 13000000 cycles: 10087219 heartbeat IPC: 0.822059 cumulative IPC: 0.782524 (Simulation time: 0 hr 6 min 0 sec) 
select_counter is 599
Heartbeat CPU 0 instructions: 14000000 cycles: 11335806 heartbeat IPC: 0.800905 cumulative IPC: 0.78704 (Simulation time: 0 hr 6 min 28 sec) 
select_counter is 541
Heartbeat CPU 0 instructions: 15000002 cycles: 12736296 heartbeat IPC: 0.714037 cumulative IPC: 0.771269 (Simulation time: 0 hr 6 min 55 sec) 
select_counter is 460
Heartbeat CPU 0 instructions: 16000000 cycles: 13968906 heartbeat IPC: 0.811285 cumulative IPC: 0.777662 (Simulation time: 0 hr 7 min 23 sec) 
select_counter is 421
Heartbeat CPU 0 instructions: 17000000 cycles: 15194096 heartbeat IPC: 0.8162 cumulative IPC: 0.782943 (Simulation time: 0 hr 7 min 52 sec) 
select_counter is 351
Heartbeat CPU 0 instructions: 18000001 cycles: 16696788 heartbeat IPC: 0.665473 cumulative IPC: 0.76604 (Simulation time: 0 hr 8 min 18 sec) 
select_counter is 277
Heartbeat CPU 0 instructions: 19000003 cycles: 17934606 heartbeat IPC: 0.807875 cumulative IPC: 0.770473 (Simulation time: 0 hr 8 min 48 sec) 
select_counter is 219
Heartbeat CPU 0 instructions: 20000000 cycles: 19152196 heartbeat IPC: 0.821292 cumulative IPC: 0.77527 (Simulation time: 0 hr 9 min 15 sec) 
select_counter is 158
Heartbeat CPU 0 instructions: 21000003 cycles: 20491047 heartbeat IPC: 0.746911 cumulative IPC: 0.772604 (Simulation time: 0 hr 9 min 45 sec) 
select_counter is 87
Heartbeat CPU 0 instructions: 22000003 cycles: 21831428 heartbeat IPC: 0.746057 cumulative IPC: 0.770319 (Simulation time: 0 hr 10 min 15 sec) 
select_counter is 1021
Heartbeat CPU 0 instructions: 23000002 cycles: 23020539 heartbeat IPC: 0.840964 cumulative IPC: 0.775329 (Simulation time: 0 hr 10 min 43 sec) 
select_counter is 964
Heartbeat CPU 0 instructions: 24000000 cycles: 24204889 heartbeat IPC: 0.844343 cumulative IPC: 0.779883 (Simulation time: 0 hr 11 min 12 sec) 
select_counter is 907
Heartbeat CPU 0 instructions: 25000000 cycles: 25595171 heartbeat IPC: 0.719279 cumulative IPC: 0.775526 (Simulation time: 0 hr 11 min 40 sec) 
select_counter is 831
Heartbeat CPU 0 instructions: 26000000 cycles: 26798683 heartbeat IPC: 0.830902 cumulative IPC: 0.77877 (Simulation time: 0 hr 12 min 10 sec) 
select_counter is 767
Heartbeat CPU 0 instructions: 27000000 cycles: 28011201 heartbeat IPC: 0.82473 cumulative IPC: 0.781331 (Simulation time: 0 hr 12 min 39 sec) 
select_counter is 721
Heartbeat CPU 0 instructions: 28000000 cycles: 29387956 heartbeat IPC: 0.726346 cumulative IPC: 0.778059 (Simulation time: 0 hr 13 min 7 sec) 
select_counter is 634
Heartbeat CPU 0 instructions: 29000002 cycles: 30604321 heartbeat IPC: 0.822123 cumulative IPC: 0.78026 (Simulation time: 0 hr 13 min 38 sec) 
select_counter is 572
Heartbeat CPU 0 instructions: 30000002 cycles: 31819412 heartbeat IPC: 0.822984 cumulative IPC: 0.782291 (Simulation time: 0 hr 14 min 7 sec) 
select_counter is 525
Heartbeat CPU 0 instructions: 31000002 cycles: 33070962 heartbeat IPC: 0.799009 cumulative IPC: 0.783071 (Simulation time: 0 hr 14 min 32 sec) 
select_counter is 465
Heartbeat CPU 0 instructions: 32000000 cycles: 34481087 heartbeat IPC: 0.709156 cumulative IPC: 0.779379 (Simulation time: 0 hr 15 min 2 sec) 
select_counter is 375
Heartbeat CPU 0 instructions: 33000000 cycles: 35691029 heartbeat IPC: 0.826486 cumulative IPC: 0.781315 (Simulation time: 0 hr 15 min 30 sec) 
select_counter is 320
Heartbeat CPU 0 instructions: 34000000 cycles: 36906211 heartbeat IPC: 0.822922 cumulative IPC: 0.782964 (Simulation time: 0 hr 15 min 58 sec) 
select_counter is 280
Heartbeat CPU 0 instructions: 35000002 cycles: 38353001 heartbeat IPC: 0.691187 cumulative IPC: 0.778828 (Simulation time: 0 hr 16 min 31 sec) 
select_counter is 206
Heartbeat CPU 0 instructions: 36000000 cycles: 39587148 heartbeat IPC: 0.810275 cumulative IPC: 0.779992 (Simulation time: 0 hr 16 min 58 sec) 
select_counter is 156
Heartbeat CPU 0 instructions: 37000003 cycles: 40812076 heartbeat IPC: 0.816377 cumulative IPC: 0.781282 (Simulation time: 0 hr 17 min 25 sec) 
select_counter is 118
Heartbeat CPU 0 instructions: 38000003 cycles: 42159016 heartbeat IPC: 0.742424 cumulative IPC: 0.779824 (Simulation time: 0 hr 17 min 51 sec) 
select_counter is 47
Heartbeat CPU 0 instructions: 39000001 cycles: 43477295 heartbeat IPC: 0.758563 cumulative IPC: 0.779071 (Simulation time: 0 hr 18 min 18 sec) 
select_counter is 1020
Heartbeat CPU 0 instructions: 40000000 cycles: 44687250 heartbeat IPC: 0.826476 cumulative IPC: 0.780563 (Simulation time: 0 hr 18 min 44 sec) 
select_counter is 1002
Heartbeat CPU 0 instructions: 41000000 cycles: 45880231 heartbeat IPC: 0.838236 cumulative IPC: 0.7823 (Simulation time: 0 hr 19 min 11 sec) 
select_counter is 987
Heartbeat CPU 0 instructions: 42000000 cycles: 47277630 heartbeat IPC: 0.715615 cumulative IPC: 0.780028 (Simulation time: 0 hr 19 min 38 sec) 
select_counter is 911
Heartbeat CPU 0 instructions: 43000002 cycles: 48457697 heartbeat IPC: 0.847411 cumulative IPC: 0.781912 (Simulation time: 0 hr 20 min 6 sec) 
select_counter is 887
Heartbeat CPU 0 instructions: 44000000 cycles: 49664693 heartbeat IPC: 0.828502 cumulative IPC: 0.783208 (Simulation time: 0 hr 20 min 34 sec) 
select_counter is 868
Heartbeat CPU 0 instructions: 45000001 cycles: 51104513 heartbeat IPC: 0.694532 cumulative IPC: 0.780361 (Simulation time: 0 hr 21 min 1 sec) 
select_counter is 787
Heartbeat CPU 0 instructions: 46000001 cycles: 53006476 heartbeat IPC: 0.525773 cumulative IPC: 0.770004 (Simulation time: 0 hr 21 min 30 sec) 
select_counter is 578
Heartbeat CPU 0 instructions: 47000002 cycles: 55021700 heartbeat IPC: 0.496223 cumulative IPC: 0.758691 (Simulation time: 0 hr 22 min 1 sec) 
select_counter is 541
Heartbeat CPU 0 instructions: 48000000 cycles: 57039814 heartbeat IPC: 0.495511 cumulative IPC: 0.748233 (Simulation time: 0 hr 22 min 33 sec) 
select_counter is 827
Heartbeat CPU 0 instructions: 49000002 cycles: 59037434 heartbeat IPC: 0.500597 cumulative IPC: 0.738861 (Simulation time: 0 hr 23 min 5 sec) 
select_counter is 884
Heartbeat CPU 0 instructions: 50000002 cycles: 61006929 heartbeat IPC: 0.507744 cumulative IPC: 0.730547 (Simulation time: 0 hr 23 min 37 sec) 
select_counter is 655
Heartbeat CPU 0 instructions: 51000000 cycles: 63031276 heartbeat IPC: 0.493985 cumulative IPC: 0.722113 (Simulation time: 0 hr 24 min 5 sec) 
select_counter is 315
Heartbeat CPU 0 instructions: 52000000 cycles: 64904472 heartbeat IPC: 0.533847 cumulative IPC: 0.7161 (Simulation time: 0 hr 24 min 34 sec) 
select_counter is 28
Heartbeat CPU 0 instructions: 53000000 cycles: 66807214 heartbeat IPC: 0.525557 cumulative IPC: 0.710113 (Simulation time: 0 hr 25 min 6 sec) 
select_counter is 882
Heartbeat CPU 0 instructions: 54000003 cycles: 68763540 heartbeat IPC: 0.511164 cumulative IPC: 0.703887 (Simulation time: 0 hr 25 min 36 sec) 
select_counter is 712
Heartbeat CPU 0 instructions: 55000001 cycles: 70815054 heartbeat IPC: 0.487444 cumulative IPC: 0.697009 (Simulation time: 0 hr 26 min 5 sec) 
select_counter is 701
Heartbeat CPU 0 instructions: 56000000 cycles: 73167904 heartbeat IPC: 0.425016 cumulative IPC: 0.687445 (Simulation time: 0 hr 26 min 35 sec) 
select_counter is 1023
Heartbeat CPU 0 instructions: 57000003 cycles: 75564577 heartbeat IPC: 0.417246 cumulative IPC: 0.678102 (Simulation time: 0 hr 27 min 8 sec) 
select_counter is 1020
Heartbeat CPU 0 instructions: 58000001 cycles: 78032938 heartbeat IPC: 0.405126 cumulative IPC: 0.668715 (Simulation time: 0 hr 27 min 43 sec) 
select_counter is 1022
Heartbeat CPU 0 instructions: 59000003 cycles: 80359828 heartbeat IPC: 0.429759 cumulative IPC: 0.661212 (Simulation time: 0 hr 28 min 18 sec) 
select_counter is 1020
Heartbeat CPU 0 instructions: 60000000 cycles: 82679924 heartbeat IPC: 0.431015 cumulative IPC: 0.654224 (Simulation time: 0 hr 28 min 57 sec) 
select_counter is 1020
Heartbeat CPU 0 instructions: 61000003 cycles: 85011843 heartbeat IPC: 0.428833 cumulative IPC: 0.64755 (Simulation time: 0 hr 29 min 32 sec) 
select_counter is 1022
Heartbeat CPU 0 instructions: 62000001 cycles: 87342523 heartbeat IPC: 0.429058 cumulative IPC: 0.64127 (Simulation time: 0 hr 30 min 5 sec) 
select_counter is 1011
Heartbeat CPU 0 instructions: 63000000 cycles: 89330692 heartbeat IPC: 0.502975 cumulative IPC: 0.637961 (Simulation time: 0 hr 30 min 35 sec) 
select_counter is 986
Heartbeat CPU 0 instructions: 64000000 cycles: 90653659 heartbeat IPC: 0.755877 cumulative IPC: 0.639809 (Simulation time: 0 hr 31 min 4 sec) 
select_counter is 742
Heartbeat CPU 0 instructions: 65000000 cycles: 92015999 heartbeat IPC: 0.734031 cumulative IPC: 0.641306 (Simulation time: 0 hr 31 min 35 sec) 
select_counter is 570
Heartbeat CPU 0 instructions: 66000002 cycles: 93404009 heartbeat IPC: 0.720457 cumulative IPC: 0.642566 (Simulation time: 0 hr 32 min 2 sec) 
select_counter is 390
Heartbeat CPU 0 instructions: 67000001 cycles: 94707984 heartbeat IPC: 0.766885 cumulative IPC: 0.644399 (Simulation time: 0 hr 32 min 30 sec) 
select_counter is 237
Heartbeat CPU 0 instructions: 68000000 cycles: 96053382 heartbeat IPC: 0.743274 cumulative IPC: 0.64588 (Simulation time: 0 hr 32 min 59 sec) 
select_counter is 46
Heartbeat CPU 0 instructions: 69000000 cycles: 97318528 heartbeat IPC: 0.790423 cumulative IPC: 0.647888 (Simulation time: 0 hr 33 min 29 sec) 
select_counter is 924
Heartbeat CPU 0 instructions: 70000000 cycles: 98652237 heartbeat IPC: 0.749789 cumulative IPC: 0.649359 (Simulation time: 0 hr 33 min 55 sec) 
select_counter is 755
Heartbeat CPU 0 instructions: 71000000 cycles: 99971967 heartbeat IPC: 0.757731 cumulative IPC: 0.650885 (Simulation time: 0 hr 34 min 22 sec) 
select_counter is 507
Heartbeat CPU 0 instructions: 72000000 cycles: 101314760 heartbeat IPC: 0.744716 cumulative IPC: 0.652211 (Simulation time: 0 hr 34 min 48 sec) 
select_counter is 288
Heartbeat CPU 0 instructions: 73000000 cycles: 102607883 heartbeat IPC: 0.773322 cumulative IPC: 0.653836 (Simulation time: 0 hr 35 min 14 sec) 
select_counter is 70
Heartbeat CPU 0 instructions: 74000000 cycles: 103867717 heartbeat IPC: 0.793755 cumulative IPC: 0.655642 (Simulation time: 0 hr 35 min 38 sec) 
select_counter is 864
Heartbeat CPU 0 instructions: 75000003 cycles: 105209229 heartbeat IPC: 0.74543 cumulative IPC: 0.656859 (Simulation time: 0 hr 36 min 1 sec) 
select_counter is 659
Heartbeat CPU 0 instructions: 76000000 cycles: 106530203 heartbeat IPC: 0.757015 cumulative IPC: 0.658179 (Simulation time: 0 hr 36 min 30 sec) 
select_counter is 434
Heartbeat CPU 0 instructions: 77000000 cycles: 107851281 heartbeat IPC: 0.756958 cumulative IPC: 0.659463 (Simulation time: 0 hr 36 min 55 sec) 
select_counter is 277
Heartbeat CPU 0 instructions: 78000001 cycles: 109140508 heartbeat IPC: 0.775659 cumulative IPC: 0.660919 (Simulation time: 0 hr 37 min 18 sec) 
select_counter is 122
Heartbeat CPU 0 instructions: 79000001 cycles: 110443074 heartbeat IPC: 0.767715 cumulative IPC: 0.662254 (Simulation time: 0 hr 37 min 40 sec) 
select_counter is 962
Heartbeat CPU 0 instructions: 80000000 cycles: 111773866 heartbeat IPC: 0.751431 cumulative IPC: 0.663379 (Simulation time: 0 hr 38 min 7 sec) 
select_counter is 797
Heartbeat CPU 0 instructions: 81000000 cycles: 113098318 heartbeat IPC: 0.755029 cumulative IPC: 0.664515 (Simulation time: 0 hr 38 min 30 sec) 
select_counter is 592
Heartbeat CPU 0 instructions: 82000003 cycles: 114476055 heartbeat IPC: 0.72583 cumulative IPC: 0.665296 (Simulation time: 0 hr 38 min 52 sec) 
select_counter is 430
Heartbeat CPU 0 instructions: 83000001 cycles: 115793095 heartbeat IPC: 0.759277 cumulative IPC: 0.666426 (Simulation time: 0 hr 39 min 11 sec) 
select_counter is 309
Heartbeat CPU 0 instructions: 84000000 cycles: 117102498 heartbeat IPC: 0.763706 cumulative IPC: 0.667575 (Simulation time: 0 hr 39 min 29 sec) 
select_counter is 193
Heartbeat CPU 0 instructions: 85000001 cycles: 118392248 heartbeat IPC: 0.775345 cumulative IPC: 0.668814 (Simulation time: 0 hr 39 min 48 sec) 
select_counter is 126
Heartbeat CPU 0 instructions: 86000003 cycles: 119695047 heartbeat IPC: 0.76758 cumulative IPC: 0.669948 (Simulation time: 0 hr 40 min 4 sec) 
select_counter is 48
Heartbeat CPU 0 instructions: 87000001 cycles: 120985287 heartbeat IPC: 0.775048 cumulative IPC: 0.67113 (Simulation time: 0 hr 40 min 22 sec) 
select_counter is 981
Heartbeat CPU 0 instructions: 88000000 cycles: 122310145 heartbeat IPC: 0.754797 cumulative IPC: 0.672085 (Simulation time: 0 hr 40 min 38 sec) 
select_counter is 880
Heartbeat CPU 0 instructions: 89000001 cycles: 123658182 heartbeat IPC: 0.74182 cumulative IPC: 0.672886 (Simulation time: 0 hr 40 min 54 sec) 
select_counter is 778
Heartbeat CPU 0 instructions: 90000002 cycles: 124998467 heartbeat IPC: 0.746111 cumulative IPC: 0.673713 (Simulation time: 0 hr 41 min 11 sec) 
select_counter is 720
Heartbeat CPU 0 instructions: 91000000 cycles: 126345878 heartbeat IPC: 0.742163 cumulative IPC: 0.674481 (Simulation time: 0 hr 41 min 25 sec) 
select_counter is 622
Heartbeat CPU 0 instructions: 92000000 cycles: 127677165 heartbeat IPC: 0.751153 cumulative IPC: 0.675321 (Simulation time: 0 hr 41 min 38 sec) 
select_counter is 517
Heartbeat CPU 0 instructions: 93000002 cycles: 129030064 heartbeat IPC: 0.739155 cumulative IPC: 0.676025 (Simulation time: 0 hr 41 min 51 sec) 
select_counter is 434
Heartbeat CPU 0 instructions: 94000000 cycles: 130311419 heartbeat IPC: 0.780422 cumulative IPC: 0.677103 (Simulation time: 0 hr 42 min 4 sec) 
select_counter is 322
Heartbeat CPU 0 instructions: 95000003 cycles: 131599223 heartbeat IPC: 0.776518 cumulative IPC: 0.678124 (Simulation time: 0 hr 42 min 16 sec) 
select_counter is 235
Heartbeat CPU 0 instructions: 96000000 cycles: 132916440 heartbeat IPC: 0.759174 cumulative IPC: 0.678967 (Simulation time: 0 hr 42 min 28 sec) 
select_counter is 147
Heartbeat CPU 0 instructions: 97000001 cycles: 134200726 heartbeat IPC: 0.778644 cumulative IPC: 0.679968 (Simulation time: 0 hr 42 min 38 sec) 
select_counter is 50
Heartbeat CPU 0 instructions: 98000002 cycles: 135524470 heartbeat IPC: 0.755434 cumulative IPC: 0.68074 (Simulation time: 0 hr 42 min 48 sec) 
select_counter is 1003
Heartbeat CPU 0 instructions: 99000000 cycles: 136818314 heartbeat IPC: 0.772889 cumulative IPC: 0.681654 (Simulation time: 0 hr 42 min 57 sec) 
select_counter is 943
Heartbeat CPU 0 instructions: 100000000 cycles: 138181547 heartbeat IPC: 0.73355 cumulative IPC: 0.68219 (Simulation time: 0 hr 43 min 6 sec) 
select_counter is 830
Heartbeat CPU 0 instructions: 101000000 cycles: 139520909 heartbeat IPC: 0.746624 cumulative IPC: 0.682837 (Simulation time: 0 hr 43 min 15 sec) 
select_counter is 743
Heartbeat CPU 0 instructions: 102000001 cycles: 140847981 heartbeat IPC: 0.753539 cumulative IPC: 0.683535 (Simulation time: 0 hr 43 min 23 sec) 
select_counter is 651
Heartbeat CPU 0 instructions: 103000002 cycles: 142210716 heartbeat IPC: 0.733819 cumulative IPC: 0.684039 (Simulation time: 0 hr 43 min 31 sec) 
select_counter is 533
Heartbeat CPU 0 instructions: 104000000 cycles: 143527444 heartbeat IPC: 0.759457 cumulative IPC: 0.684762 (Simulation time: 0 hr 43 min 40 sec) 
select_counter is 456
Heartbeat CPU 0 instructions: 105000001 cycles: 144860846 heartbeat IPC: 0.749962 cumulative IPC: 0.685389 (Simulation time: 0 hr 43 min 48 sec) 
select_counter is 375
Heartbeat CPU 0 instructions: 106000002 cycles: 146151955 heartbeat IPC: 0.774529 cumulative IPC: 0.686212 (Simulation time: 0 hr 43 min 57 sec) 
select_counter is 294
Heartbeat CPU 0 instructions: 107000000 cycles: 147466760 heartbeat IPC: 0.760568 cumulative IPC: 0.686904 (Simulation time: 0 hr 44 min 5 sec) 
select_counter is 198
Heartbeat CPU 0 instructions: 108000000 cycles: 148763392 heartbeat IPC: 0.771229 cumulative IPC: 0.687671 (Simulation time: 0 hr 44 min 13 sec) 
select_counter is 97
Heartbeat CPU 0 instructions: 109000003 cycles: 150054144 heartbeat IPC: 0.774745 cumulative IPC: 0.688453 (Simulation time: 0 hr 44 min 20 sec) 
select_counter is 1023
Heartbeat CPU 0 instructions: 110000001 cycles: 151383206 heartbeat IPC: 0.752409 cumulative IPC: 0.689039 (Simulation time: 0 hr 44 min 27 sec) 
select_counter is 941
Finished CPU 0 instructions: 100000000 cycles: 145129734 cummulative IPC: 0.689039 (Simulation time: 0 hr 44 min 27 sec) 

ChampSim completed all CPUs

Region of Interest Statistics

CPU 0 cummulative IPC: 0.689039 instructions: 100000000 cycles: 145129734
LLC TOTAL     ACCESS:    3758620  HIT:    1031886  MISS:    2726734
LLC LOAD      ACCESS:     403234  HIT:      91403  MISS:     311831
LLC RFO       ACCESS:     463744  HIT:     173366  MISS:     290378
LLC PREFETCH  ACCESS:    2142466  HIT:     328470  MISS:    1813996
LLC WRITEBACK ACCESS:     749176  HIT:     438647  MISS:     310529
Ship samples: 
31, 57, 91, 123, 144, 160, 215, 243, 285, 297, 324, 377, 393, 446, 467, 491, 519, 547, 587, 610, 654, 688, 713, 757, 778, 808, 844, 876, 924, 937, 990, 993, 1049, 1064, 1090, 1151, 1165, 1205, 1236, 1276, 1288, 1325, 1350, 1385, 1411, 1457, 1480, 1511, 1558, 1574, 1626, 1641, 1685, 1725, 1753, 1777, 1813, 1828, 1862, 1890, 1940, 1961, 1996, 2027, 
Lime duel samples: 
23, 50, 81, 102, 128, 175, 213, 230, 272, 294, 321, 366, 413, 442, 468, 500, 530, 548, 578, 638, 667, 674, 709, 740, 774, 830, 847, 865, 917, 938, 975, 1013, 1029, 1060, 1092, 1130, 1168, 1200, 1238, 1258, 1310, 1316, 1364, 1401, 1410, 1459, 1474, 1522, 1537, 1583, 1624, 1637, 1671, 1726, 1737, 1768, 1822, 1830, 1871, 1906, 1943, 1962, 2012, 2047, 
Lime samples: 
23, 128, 272, 413, 530, 667, 774, 917, 1029, 1168, 1310, 1410, 1537, 1671, 1822, 1943, 
Insertion Distribution: 
	LOAD 15474 0 0 0 0 0 9785 78227 
	RFO 1471 0 0 0 0 0 1305 37195 
	PREF 0 24013 0 0 0 0 75783 597523 
	WRITEBACK 0 0 0 0 0 0 0 127686 
Total Prefetch Downgrades: 27826
