
*** ChampSim Multicore Out-of-Order Simulator ***

Warmup Instructions: 10000000
Simulation Instructions: 100000000
Configuration: 2
Number of CPUs: 1
LLC sets: 2048
LLC ways: 16
Off-chip DRAM Channels: 1 Width: 64-bit Data Rate: 1600 MT/s

CPU 0 runs /datasets/cs240c-wi22-a00-public/data/Assignment2-gz/omnetpp_340B.trace.gz
CPU 0 L1D next line prefetcher
CPU 0 L2C IP-based stride prefetcher
Initialize LRU replacement state
Heartbeat CPU 0 instructions: 1000001 cycles: 576949 heartbeat IPC: 1.73326 cumulative IPC: 1.73326 (Simulation time: 0 hr 0 min 43 sec) 
Heartbeat CPU 0 instructions: 2000000 cycles: 1160854 heartbeat IPC: 1.71261 cumulative IPC: 1.72287 (Simulation time: 0 hr 1 min 24 sec) 
Heartbeat CPU 0 instructions: 3000001 cycles: 1758129 heartbeat IPC: 1.67427 cumulative IPC: 1.70636 (Simulation time: 0 hr 2 min 7 sec) 
Heartbeat CPU 0 instructions: 4000000 cycles: 2378946 heartbeat IPC: 1.61078 cumulative IPC: 1.68142 (Simulation time: 0 hr 2 min 51 sec) 
Heartbeat CPU 0 instructions: 5000002 cycles: 2954564 heartbeat IPC: 1.73727 cumulative IPC: 1.6923 (Simulation time: 0 hr 3 min 34 sec) 
Heartbeat CPU 0 instructions: 6000003 cycles: 3556004 heartbeat IPC: 1.66268 cumulative IPC: 1.68729 (Simulation time: 0 hr 4 min 21 sec) 
Heartbeat CPU 0 instructions: 7000003 cycles: 4205550 heartbeat IPC: 1.53954 cumulative IPC: 1.66447 (Simulation time: 0 hr 5 min 10 sec) 
Heartbeat CPU 0 instructions: 8000000 cycles: 4800011 heartbeat IPC: 1.68219 cumulative IPC: 1.66666 (Simulation time: 0 hr 5 min 53 sec) 
Heartbeat CPU 0 instructions: 9000002 cycles: 5433401 heartbeat IPC: 1.57881 cumulative IPC: 1.65642 (Simulation time: 0 hr 6 min 42 sec) 
Heartbeat CPU 0 instructions: 10000002 cycles: 6028030 heartbeat IPC: 1.68172 cumulative IPC: 1.65892 (Simulation time: 0 hr 7 min 24 sec) 

Warmup complete CPU 0 instructions: 10000002 cycles: 6028030 (Simulation time: 0 hr 7 min 24 sec) 

Heartbeat CPU 0 instructions: 11000000 cycles: 9521252 heartbeat IPC: 0.286268 cumulative IPC: 0.286268 (Simulation time: 0 hr 8 min 22 sec) 
Heartbeat CPU 0 instructions: 12000000 cycles: 13070699 heartbeat IPC: 0.281734 cumulative IPC: 0.283983 (Simulation time: 0 hr 9 min 18 sec) 
Heartbeat CPU 0 instructions: 13000000 cycles: 16729490 heartbeat IPC: 0.273314 cumulative IPC: 0.280335 (Simulation time: 0 hr 10 min 13 sec) 
Heartbeat CPU 0 instructions: 14000001 cycles: 20643694 heartbeat IPC: 0.25548 cumulative IPC: 0.273679 (Simulation time: 0 hr 11 min 7 sec) 
Heartbeat CPU 0 instructions: 15000003 cycles: 24751594 heartbeat IPC: 0.243434 cumulative IPC: 0.267043 (Simulation time: 0 hr 12 min 9 sec) 
Heartbeat CPU 0 instructions: 16000000 cycles: 29162819 heartbeat IPC: 0.226694 cumulative IPC: 0.25935 (Simulation time: 0 hr 13 min 10 sec) 
Heartbeat CPU 0 instructions: 17000000 cycles: 32875637 heartbeat IPC: 0.269337 cumulative IPC: 0.260731 (Simulation time: 0 hr 14 min 3 sec) 
Heartbeat CPU 0 instructions: 18000000 cycles: 36815736 heartbeat IPC: 0.253801 cumulative IPC: 0.259844 (Simulation time: 0 hr 14 min 59 sec) 
Heartbeat CPU 0 instructions: 19000000 cycles: 41363008 heartbeat IPC: 0.219912 cumulative IPC: 0.254705 (Simulation time: 0 hr 15 min 53 sec) 
Heartbeat CPU 0 instructions: 20000000 cycles: 45546036 heartbeat IPC: 0.239061 cumulative IPC: 0.253049 (Simulation time: 0 hr 16 min 49 sec) 
Heartbeat CPU 0 instructions: 21000000 cycles: 49015343 heartbeat IPC: 0.288242 cumulative IPC: 0.255889 (Simulation time: 0 hr 17 min 41 sec) 
Heartbeat CPU 0 instructions: 22000001 cycles: 52694362 heartbeat IPC: 0.271812 cumulative IPC: 0.257145 (Simulation time: 0 hr 18 min 40 sec) 
Heartbeat CPU 0 instructions: 23000001 cycles: 56443815 heartbeat IPC: 0.266706 cumulative IPC: 0.257856 (Simulation time: 0 hr 19 min 33 sec) 
Heartbeat CPU 0 instructions: 24000000 cycles: 60173245 heartbeat IPC: 0.268137 cumulative IPC: 0.258564 (Simulation time: 0 hr 20 min 21 sec) 
Heartbeat CPU 0 instructions: 25000000 cycles: 64012512 heartbeat IPC: 0.260466 cumulative IPC: 0.25869 (Simulation time: 0 hr 21 min 12 sec) 
Heartbeat CPU 0 instructions: 26000001 cycles: 68106295 heartbeat IPC: 0.244273 cumulative IPC: 0.257739 (Simulation time: 0 hr 22 min 1 sec) 
Heartbeat CPU 0 instructions: 27000000 cycles: 72130018 heartbeat IPC: 0.248526 cumulative IPC: 0.257178 (Simulation time: 0 hr 22 min 56 sec) 
Heartbeat CPU 0 instructions: 28000000 cycles: 76268470 heartbeat IPC: 0.241636 cumulative IPC: 0.256263 (Simulation time: 0 hr 23 min 49 sec) 
Heartbeat CPU 0 instructions: 29000003 cycles: 80302765 heartbeat IPC: 0.247876 cumulative IPC: 0.255807 (Simulation time: 0 hr 24 min 38 sec) 
Heartbeat CPU 0 instructions: 30000000 cycles: 84076076 heartbeat IPC: 0.265018 cumulative IPC: 0.256252 (Simulation time: 0 hr 25 min 23 sec) 
Heartbeat CPU 0 instructions: 31000000 cycles: 87920207 heartbeat IPC: 0.260137 cumulative IPC: 0.256435 (Simulation time: 0 hr 26 min 19 sec) 
Heartbeat CPU 0 instructions: 32000000 cycles: 91544722 heartbeat IPC: 0.275899 cumulative IPC: 0.25726 (Simulation time: 0 hr 27 min 3 sec) 
Heartbeat CPU 0 instructions: 33000003 cycles: 95270083 heartbeat IPC: 0.268431 cumulative IPC: 0.257726 (Simulation time: 0 hr 27 min 49 sec) 
Heartbeat CPU 0 instructions: 34000001 cycles: 99435958 heartbeat IPC: 0.240045 cumulative IPC: 0.256938 (Simulation time: 0 hr 28 min 40 sec) 
Heartbeat CPU 0 instructions: 35000002 cycles: 102966550 heartbeat IPC: 0.283239 cumulative IPC: 0.257895 (Simulation time: 0 hr 29 min 25 sec) 
Heartbeat CPU 0 instructions: 36000000 cycles: 107416822 heartbeat IPC: 0.224705 cumulative IPC: 0.256439 (Simulation time: 0 hr 30 min 12 sec) 
Heartbeat CPU 0 instructions: 37000000 cycles: 112130105 heartbeat IPC: 0.212166 cumulative IPC: 0.254472 (Simulation time: 0 hr 31 min 0 sec) 
Heartbeat CPU 0 instructions: 38000000 cycles: 115989117 heartbeat IPC: 0.259134 cumulative IPC: 0.254636 (Simulation time: 0 hr 31 min 55 sec) 
Heartbeat CPU 0 instructions: 39000001 cycles: 120245599 heartbeat IPC: 0.234936 cumulative IPC: 0.253901 (Simulation time: 0 hr 32 min 49 sec) 
Heartbeat CPU 0 instructions: 40000000 cycles: 123766768 heartbeat IPC: 0.283996 cumulative IPC: 0.254801 (Simulation time: 0 hr 33 min 34 sec) 
Heartbeat CPU 0 instructions: 41000000 cycles: 127522524 heartbeat IPC: 0.266258 cumulative IPC: 0.255156 (Simulation time: 0 hr 34 min 31 sec) 
Heartbeat CPU 0 instructions: 42000001 cycles: 132034716 heartbeat IPC: 0.221622 cumulative IPC: 0.253955 (Simulation time: 0 hr 35 min 32 sec) 
Heartbeat CPU 0 instructions: 43000001 cycles: 136339230 heartbeat IPC: 0.232314 cumulative IPC: 0.25324 (Simulation time: 0 hr 36 min 34 sec) 
Heartbeat CPU 0 instructions: 44000000 cycles: 140188720 heartbeat IPC: 0.259774 cumulative IPC: 0.253427 (Simulation time: 0 hr 37 min 33 sec) 
Heartbeat CPU 0 instructions: 45000003 cycles: 144092558 heartbeat IPC: 0.256159 cumulative IPC: 0.253505 (Simulation time: 0 hr 38 min 28 sec) 
Heartbeat CPU 0 instructions: 46000003 cycles: 148107760 heartbeat IPC: 0.249053 cumulative IPC: 0.253379 (Simulation time: 0 hr 39 min 26 sec) 
Heartbeat CPU 0 instructions: 47000000 cycles: 151232200 heartbeat IPC: 0.320056 cumulative IPC: 0.254814 (Simulation time: 0 hr 40 min 20 sec) 
Heartbeat CPU 0 instructions: 48000000 cycles: 155228023 heartbeat IPC: 0.250261 cumulative IPC: 0.254692 (Simulation time: 0 hr 41 min 18 sec) 
Heartbeat CPU 0 instructions: 49000000 cycles: 158304850 heartbeat IPC: 0.32501 cumulative IPC: 0.256113 (Simulation time: 0 hr 42 min 13 sec) 
Heartbeat CPU 0 instructions: 50000001 cycles: 162389640 heartbeat IPC: 0.244811 cumulative IPC: 0.255817 (Simulation time: 0 hr 43 min 15 sec) 
Heartbeat CPU 0 instructions: 51000003 cycles: 166066069 heartbeat IPC: 0.272004 cumulative IPC: 0.256189 (Simulation time: 0 hr 44 min 11 sec) 
Heartbeat CPU 0 instructions: 52000000 cycles: 170091439 heartbeat IPC: 0.248424 cumulative IPC: 0.255999 (Simulation time: 0 hr 45 min 16 sec) 
Heartbeat CPU 0 instructions: 53000000 cycles: 175097729 heartbeat IPC: 0.199749 cumulative IPC: 0.254333 (Simulation time: 0 hr 46 min 18 sec) 
Heartbeat CPU 0 instructions: 54000002 cycles: 179384624 heartbeat IPC: 0.23327 cumulative IPC: 0.253812 (Simulation time: 0 hr 47 min 20 sec) 
Heartbeat CPU 0 instructions: 55000001 cycles: 183290516 heartbeat IPC: 0.256023 cumulative IPC: 0.253861 (Simulation time: 0 hr 48 min 22 sec) 
Heartbeat CPU 0 instructions: 56000000 cycles: 187690811 heartbeat IPC: 0.227257 cumulative IPC: 0.253216 (Simulation time: 0 hr 49 min 25 sec) 
Heartbeat CPU 0 instructions: 57000001 cycles: 191900671 heartbeat IPC: 0.237538 cumulative IPC: 0.252861 (Simulation time: 0 hr 50 min 25 sec) 
Heartbeat CPU 0 instructions: 58000000 cycles: 195361514 heartbeat IPC: 0.288947 cumulative IPC: 0.253521 (Simulation time: 0 hr 51 min 21 sec) 
Heartbeat CPU 0 instructions: 59000003 cycles: 199369633 heartbeat IPC: 0.249494 cumulative IPC: 0.253437 (Simulation time: 0 hr 52 min 20 sec) 
Heartbeat CPU 0 instructions: 60000000 cycles: 203899700 heartbeat IPC: 0.220747 cumulative IPC: 0.252689 (Simulation time: 0 hr 53 min 20 sec) 
Heartbeat CPU 0 instructions: 61000001 cycles: 208523744 heartbeat IPC: 0.216261 cumulative IPC: 0.251857 (Simulation time: 0 hr 54 min 14 sec) 
Heartbeat CPU 0 instructions: 62000000 cycles: 213143091 heartbeat IPC: 0.216481 cumulative IPC: 0.251068 (Simulation time: 0 hr 55 min 10 sec) 
Heartbeat CPU 0 instructions: 63000001 cycles: 217119364 heartbeat IPC: 0.251492 cumulative IPC: 0.251076 (Simulation time: 0 hr 56 min 3 sec) 
Heartbeat CPU 0 instructions: 64000000 cycles: 221025278 heartbeat IPC: 0.256022 cumulative IPC: 0.251166 (Simulation time: 0 hr 56 min 55 sec) 
Heartbeat CPU 0 instructions: 65000001 cycles: 224355441 heartbeat IPC: 0.300286 cumulative IPC: 0.251915 (Simulation time: 0 hr 57 min 46 sec) 
Heartbeat CPU 0 instructions: 66000002 cycles: 228214618 heartbeat IPC: 0.259123 cumulative IPC: 0.25204 (Simulation time: 0 hr 58 min 38 sec) 
Heartbeat CPU 0 instructions: 67000002 cycles: 232002456 heartbeat IPC: 0.264003 cumulative IPC: 0.252241 (Simulation time: 0 hr 59 min 30 sec) 
Heartbeat CPU 0 instructions: 68000000 cycles: 235763022 heartbeat IPC: 0.265917 cumulative IPC: 0.252465 (Simulation time: 1 hr 0 min 24 sec) 
Heartbeat CPU 0 instructions: 69000000 cycles: 239585007 heartbeat IPC: 0.261644 cumulative IPC: 0.252615 (Simulation time: 1 hr 1 min 16 sec) 
Heartbeat CPU 0 instructions: 70000001 cycles: 243195062 heartbeat IPC: 0.277004 cumulative IPC: 0.252986 (Simulation time: 1 hr 2 min 2 sec) 
Heartbeat CPU 0 instructions: 71000003 cycles: 247135872 heartbeat IPC: 0.253755 cumulative IPC: 0.252999 (Simulation time: 1 hr 2 min 46 sec) 
Heartbeat CPU 0 instructions: 72000000 cycles: 251764932 heartbeat IPC: 0.216026 cumulative IPC: 0.252302 (Simulation time: 1 hr 3 min 32 sec) 
Heartbeat CPU 0 instructions: 73000002 cycles: 255765820 heartbeat IPC: 0.249945 cumulative IPC: 0.252265 (Simulation time: 1 hr 4 min 10 sec) 
Heartbeat CPU 0 instructions: 74000000 cycles: 259509390 heartbeat IPC: 0.267124 cumulative IPC: 0.252484 (Simulation time: 1 hr 4 min 49 sec) 
Heartbeat CPU 0 instructions: 75000003 cycles: 263638356 heartbeat IPC: 0.242192 cumulative IPC: 0.252319 (Simulation time: 1 hr 5 min 30 sec) 
Heartbeat CPU 0 instructions: 76000000 cycles: 267582773 heartbeat IPC: 0.253522 cumulative IPC: 0.252337 (Simulation time: 1 hr 6 min 7 sec) 
Heartbeat CPU 0 instructions: 77000002 cycles: 272803901 heartbeat IPC: 0.19153 cumulative IPC: 0.251147 (Simulation time: 1 hr 6 min 42 sec) 
Heartbeat CPU 0 instructions: 78000003 cycles: 276721640 heartbeat IPC: 0.25525 cumulative IPC: 0.251207 (Simulation time: 1 hr 7 min 15 sec) 
Heartbeat CPU 0 instructions: 79000002 cycles: 280628739 heartbeat IPC: 0.255944 cumulative IPC: 0.251274 (Simulation time: 1 hr 7 min 47 sec) 
Heartbeat CPU 0 instructions: 80000000 cycles: 284417335 heartbeat IPC: 0.263949 cumulative IPC: 0.251446 (Simulation time: 1 hr 8 min 18 sec) 
Heartbeat CPU 0 instructions: 81000002 cycles: 288652371 heartbeat IPC: 0.236126 cumulative IPC: 0.251217 (Simulation time: 1 hr 8 min 50 sec) 
Heartbeat CPU 0 instructions: 82000000 cycles: 293439686 heartbeat IPC: 0.208885 cumulative IPC: 0.250512 (Simulation time: 1 hr 9 min 25 sec) 
Heartbeat CPU 0 instructions: 83000002 cycles: 297248728 heartbeat IPC: 0.262534 cumulative IPC: 0.250669 (Simulation time: 1 hr 9 min 55 sec) 
Heartbeat CPU 0 instructions: 84000000 cycles: 301202822 heartbeat IPC: 0.252902 cumulative IPC: 0.250699 (Simulation time: 1 hr 10 min 28 sec) 
Heartbeat CPU 0 instructions: 85000000 cycles: 304801827 heartbeat IPC: 0.277855 cumulative IPC: 0.251026 (Simulation time: 1 hr 10 min 57 sec) 
Heartbeat CPU 0 instructions: 86000000 cycles: 308759905 heartbeat IPC: 0.252648 cumulative IPC: 0.251047 (Simulation time: 1 hr 11 min 23 sec) 
Heartbeat CPU 0 instructions: 87000001 cycles: 312527533 heartbeat IPC: 0.265419 cumulative IPC: 0.251224 (Simulation time: 1 hr 11 min 48 sec) 
Heartbeat CPU 0 instructions: 88000000 cycles: 316246776 heartbeat IPC: 0.268872 cumulative IPC: 0.251435 (Simulation time: 1 hr 12 min 12 sec) 
Heartbeat CPU 0 instructions: 89000003 cycles: 319661749 heartbeat IPC: 0.292829 cumulative IPC: 0.251886 (Simulation time: 1 hr 12 min 35 sec) 
Heartbeat CPU 0 instructions: 90000000 cycles: 323511690 heartbeat IPC: 0.259743 cumulative IPC: 0.251981 (Simulation time: 1 hr 12 min 55 sec) 
Heartbeat CPU 0 instructions: 91000001 cycles: 327071679 heartbeat IPC: 0.2809 cumulative IPC: 0.252302 (Simulation time: 1 hr 13 min 14 sec) 
Heartbeat CPU 0 instructions: 92000000 cycles: 331151142 heartbeat IPC: 0.24513 cumulative IPC: 0.252212 (Simulation time: 1 hr 13 min 32 sec) 
Heartbeat CPU 0 instructions: 93000001 cycles: 335723345 heartbeat IPC: 0.218713 cumulative IPC: 0.251748 (Simulation time: 1 hr 13 min 51 sec) 
Heartbeat CPU 0 instructions: 94000001 cycles: 339611545 heartbeat IPC: 0.257188 cumulative IPC: 0.251811 (Simulation time: 1 hr 14 min 9 sec) 
Heartbeat CPU 0 instructions: 95000000 cycles: 343700392 heartbeat IPC: 0.244567 cumulative IPC: 0.251723 (Simulation time: 1 hr 14 min 26 sec) 
Heartbeat CPU 0 instructions: 96000000 cycles: 348358182 heartbeat IPC: 0.214694 cumulative IPC: 0.251219 (Simulation time: 1 hr 14 min 41 sec) 
Heartbeat CPU 0 instructions: 97000000 cycles: 351974704 heartbeat IPC: 0.276509 cumulative IPC: 0.251484 (Simulation time: 1 hr 14 min 55 sec) 
Heartbeat CPU 0 instructions: 98000000 cycles: 356299480 heartbeat IPC: 0.231226 cumulative IPC: 0.251234 (Simulation time: 1 hr 15 min 7 sec) 
Heartbeat CPU 0 instructions: 99000000 cycles: 361081485 heartbeat IPC: 0.209117 cumulative IPC: 0.250666 (Simulation time: 1 hr 15 min 18 sec) 
Heartbeat CPU 0 instructions: 100000000 cycles: 365197642 heartbeat IPC: 0.242945 cumulative IPC: 0.250578 (Simulation time: 1 hr 15 min 28 sec) 
Heartbeat CPU 0 instructions: 101000000 cycles: 369107561 heartbeat IPC: 0.25576 cumulative IPC: 0.250634 (Simulation time: 1 hr 15 min 39 sec) 
Heartbeat CPU 0 instructions: 102000003 cycles: 373089796 heartbeat IPC: 0.251116 cumulative IPC: 0.250639 (Simulation time: 1 hr 15 min 47 sec) 
Heartbeat CPU 0 instructions: 103000000 cycles: 376935830 heartbeat IPC: 0.260007 cumulative IPC: 0.250736 (Simulation time: 1 hr 15 min 55 sec) 
Heartbeat CPU 0 instructions: 104000000 cycles: 380636971 heartbeat IPC: 0.270187 cumulative IPC: 0.250928 (Simulation time: 1 hr 16 min 3 sec) 
Heartbeat CPU 0 instructions: 105000003 cycles: 384504641 heartbeat IPC: 0.258554 cumulative IPC: 0.251006 (Simulation time: 1 hr 16 min 11 sec) 
Heartbeat CPU 0 instructions: 106000001 cycles: 388078540 heartbeat IPC: 0.279806 cumulative IPC: 0.251276 (Simulation time: 1 hr 16 min 18 sec) 
Heartbeat CPU 0 instructions: 107000000 cycles: 392281347 heartbeat IPC: 0.237936 cumulative IPC: 0.251131 (Simulation time: 1 hr 16 min 26 sec) 
Heartbeat CPU 0 instructions: 108000000 cycles: 396469861 heartbeat IPC: 0.238748 cumulative IPC: 0.250998 (Simulation time: 1 hr 16 min 34 sec) 
Heartbeat CPU 0 instructions: 109000000 cycles: 400960243 heartbeat IPC: 0.222698 cumulative IPC: 0.250676 (Simulation time: 1 hr 16 min 41 sec) 
Heartbeat CPU 0 instructions: 110000000 cycles: 404627653 heartbeat IPC: 0.272672 cumulative IPC: 0.250878 (Simulation time: 1 hr 16 min 48 sec) 
Finished CPU 0 instructions: 100000000 cycles: 398599627 cummulative IPC: 0.250878 (Simulation time: 1 hr 16 min 48 sec) 

ChampSim completed all CPUs

Region of Interest Statistics

CPU 0 cummulative IPC: 0.250878 instructions: 100000000 cycles: 398599627
LLC TOTAL     ACCESS:    4309283  HIT:    1792932  MISS:    2516351
LLC LOAD      ACCESS:    1522194  HIT:     372133  MISS:    1150061
LLC RFO       ACCESS:     248844  HIT:      60688  MISS:     188156
LLC PREFETCH  ACCESS:    1532199  HIT:     354848  MISS:    1177351
LLC WRITEBACK ACCESS:    1006046  HIT:    1005263  MISS:        783
