
*** ChampSim Multicore Out-of-Order Simulator ***

Warmup Instructions: 10000000
Simulation Instructions: 100000000
Configuration: 2
Number of CPUs: 1
LLC sets: 2048
LLC ways: 16
Off-chip DRAM Channels: 1 Width: 64-bit Data Rate: 1600 MT/s

CPU 0 runs /datasets/cs240c-wi22-a00-public/data/Assignment2-gz/leslie3d_1186B.trace.gz
CPU 0 L1D next line prefetcher
CPU 0 L2C IP-based stride prefetcher
Initialize LRU replacement state
Heartbeat CPU 0 instructions: 1000002 cycles: 564510 heartbeat IPC: 1.77145 cumulative IPC: 1.77145 (Simulation time: 0 hr 0 min 39 sec) 
Heartbeat CPU 0 instructions: 2000000 cycles: 1215832 heartbeat IPC: 1.53534 cumulative IPC: 1.64496 (Simulation time: 0 hr 1 min 24 sec) 
Heartbeat CPU 0 instructions: 3000000 cycles: 1867575 heartbeat IPC: 1.53435 cumulative IPC: 1.60636 (Simulation time: 0 hr 2 min 4 sec) 
Heartbeat CPU 0 instructions: 4000000 cycles: 2473163 heartbeat IPC: 1.65129 cumulative IPC: 1.61736 (Simulation time: 0 hr 2 min 45 sec) 
Heartbeat CPU 0 instructions: 5000000 cycles: 3083491 heartbeat IPC: 1.63846 cumulative IPC: 1.62154 (Simulation time: 0 hr 3 min 25 sec) 
Heartbeat CPU 0 instructions: 6000000 cycles: 3735260 heartbeat IPC: 1.53429 cumulative IPC: 1.60631 (Simulation time: 0 hr 4 min 9 sec) 
Heartbeat CPU 0 instructions: 7000001 cycles: 4386570 heartbeat IPC: 1.53537 cumulative IPC: 1.59578 (Simulation time: 0 hr 4 min 54 sec) 
Heartbeat CPU 0 instructions: 8000000 cycles: 4951177 heartbeat IPC: 1.77114 cumulative IPC: 1.61578 (Simulation time: 0 hr 5 min 37 sec) 
Heartbeat CPU 0 instructions: 9000003 cycles: 5602496 heartbeat IPC: 1.53535 cumulative IPC: 1.60643 (Simulation time: 0 hr 6 min 23 sec) 
Heartbeat CPU 0 instructions: 10000001 cycles: 6253748 heartbeat IPC: 1.5355 cumulative IPC: 1.59904 (Simulation time: 0 hr 7 min 8 sec) 

Warmup complete CPU 0 instructions: 10000001 cycles: 6253748 (Simulation time: 0 hr 7 min 8 sec) 

Heartbeat CPU 0 instructions: 11000001 cycles: 7657616 heartbeat IPC: 0.712318 cumulative IPC: 0.712318 (Simulation time: 0 hr 7 min 52 sec) 
Heartbeat CPU 0 instructions: 12000000 cycles: 8944903 heartbeat IPC: 0.776827 cumulative IPC: 0.743175 (Simulation time: 0 hr 8 min 44 sec) 
Heartbeat CPU 0 instructions: 13000000 cycles: 10289504 heartbeat IPC: 0.743715 cumulative IPC: 0.743355 (Simulation time: 0 hr 9 min 33 sec) 
Heartbeat CPU 0 instructions: 14000000 cycles: 11612345 heartbeat IPC: 0.755949 cumulative IPC: 0.746464 (Simulation time: 0 hr 10 min 20 sec) 
Heartbeat CPU 0 instructions: 15000002 cycles: 12984999 heartbeat IPC: 0.728517 cumulative IPC: 0.742804 (Simulation time: 0 hr 11 min 4 sec) 
Heartbeat CPU 0 instructions: 16000000 cycles: 14318238 heartbeat IPC: 0.750052 cumulative IPC: 0.744002 (Simulation time: 0 hr 11 min 53 sec) 
Heartbeat CPU 0 instructions: 17000000 cycles: 15603201 heartbeat IPC: 0.778233 cumulative IPC: 0.748707 (Simulation time: 0 hr 12 min 47 sec) 
Heartbeat CPU 0 instructions: 18000001 cycles: 17014022 heartbeat IPC: 0.708808 cumulative IPC: 0.743475 (Simulation time: 0 hr 13 min 29 sec) 
Heartbeat CPU 0 instructions: 19000003 cycles: 18346462 heartbeat IPC: 0.750504 cumulative IPC: 0.74425 (Simulation time: 0 hr 14 min 12 sec) 
Heartbeat CPU 0 instructions: 20000000 cycles: 19692602 heartbeat IPC: 0.742863 cumulative IPC: 0.744111 (Simulation time: 0 hr 14 min 58 sec) 
Heartbeat CPU 0 instructions: 21000003 cycles: 21053018 heartbeat IPC: 0.735071 cumulative IPC: 0.74328 (Simulation time: 0 hr 15 min 45 sec) 
Heartbeat CPU 0 instructions: 22000003 cycles: 22368173 heartbeat IPC: 0.760367 cumulative IPC: 0.744675 (Simulation time: 0 hr 16 min 30 sec) 
Heartbeat CPU 0 instructions: 23000002 cycles: 23706416 heartbeat IPC: 0.747248 cumulative IPC: 0.744872 (Simulation time: 0 hr 17 min 13 sec) 
Heartbeat CPU 0 instructions: 24000000 cycles: 24973753 heartbeat IPC: 0.789055 cumulative IPC: 0.747863 (Simulation time: 0 hr 17 min 55 sec) 
Heartbeat CPU 0 instructions: 25000000 cycles: 26370301 heartbeat IPC: 0.716051 cumulative IPC: 0.745655 (Simulation time: 0 hr 18 min 35 sec) 
Heartbeat CPU 0 instructions: 26000000 cycles: 27705739 heartbeat IPC: 0.748818 cumulative IPC: 0.745851 (Simulation time: 0 hr 19 min 26 sec) 
Heartbeat CPU 0 instructions: 27000000 cycles: 29007039 heartbeat IPC: 0.768462 cumulative IPC: 0.747145 (Simulation time: 0 hr 20 min 8 sec) 
Heartbeat CPU 0 instructions: 28000000 cycles: 30441261 heartbeat IPC: 0.697242 cumulative IPC: 0.744186 (Simulation time: 0 hr 20 min 47 sec) 
Heartbeat CPU 0 instructions: 29000002 cycles: 31717004 heartbeat IPC: 0.783858 cumulative IPC: 0.746173 (Simulation time: 0 hr 21 min 27 sec) 
Heartbeat CPU 0 instructions: 30000002 cycles: 33049208 heartbeat IPC: 0.750636 cumulative IPC: 0.746395 (Simulation time: 0 hr 22 min 9 sec) 
Heartbeat CPU 0 instructions: 31000002 cycles: 34373863 heartbeat IPC: 0.754914 cumulative IPC: 0.746796 (Simulation time: 0 hr 22 min 51 sec) 
Heartbeat CPU 0 instructions: 32000000 cycles: 35716045 heartbeat IPC: 0.745054 cumulative IPC: 0.746717 (Simulation time: 0 hr 23 min 33 sec) 
Heartbeat CPU 0 instructions: 33000000 cycles: 37039928 heartbeat IPC: 0.755354 cumulative IPC: 0.747088 (Simulation time: 0 hr 24 min 13 sec) 
Heartbeat CPU 0 instructions: 34000000 cycles: 38315441 heartbeat IPC: 0.783998 cumulative IPC: 0.748557 (Simulation time: 0 hr 24 min 57 sec) 
Heartbeat CPU 0 instructions: 35000000 cycles: 39702585 heartbeat IPC: 0.720906 cumulative IPC: 0.74741 (Simulation time: 0 hr 25 min 40 sec) 
Heartbeat CPU 0 instructions: 36000000 cycles: 41022630 heartbeat IPC: 0.75755 cumulative IPC: 0.747795 (Simulation time: 0 hr 26 min 21 sec) 
Heartbeat CPU 0 instructions: 37000003 cycles: 42351145 heartbeat IPC: 0.752722 cumulative IPC: 0.747976 (Simulation time: 0 hr 27 min 0 sec) 
Heartbeat CPU 0 instructions: 38000003 cycles: 43730043 heartbeat IPC: 0.725217 cumulative IPC: 0.747139 (Simulation time: 0 hr 27 min 40 sec) 
Heartbeat CPU 0 instructions: 39000001 cycles: 45034110 heartbeat IPC: 0.76683 cumulative IPC: 0.747801 (Simulation time: 0 hr 28 min 22 sec) 
Heartbeat CPU 0 instructions: 40000000 cycles: 46376582 heartbeat IPC: 0.744894 cumulative IPC: 0.747704 (Simulation time: 0 hr 29 min 5 sec) 
Heartbeat CPU 0 instructions: 41000000 cycles: 47637171 heartbeat IPC: 0.79328 cumulative IPC: 0.749092 (Simulation time: 0 hr 29 min 47 sec) 
Heartbeat CPU 0 instructions: 42000000 cycles: 49035938 heartbeat IPC: 0.714915 cumulative IPC: 0.747975 (Simulation time: 0 hr 30 min 25 sec) 
Heartbeat CPU 0 instructions: 43000002 cycles: 50341952 heartbeat IPC: 0.76569 cumulative IPC: 0.7485 (Simulation time: 0 hr 31 min 6 sec) 
Heartbeat CPU 0 instructions: 44000000 cycles: 51636740 heartbeat IPC: 0.772326 cumulative IPC: 0.749179 (Simulation time: 0 hr 31 min 53 sec) 
Heartbeat CPU 0 instructions: 45000001 cycles: 53084014 heartbeat IPC: 0.690955 cumulative IPC: 0.74738 (Simulation time: 0 hr 32 min 40 sec) 
Heartbeat CPU 0 instructions: 46000001 cycles: 54685895 heartbeat IPC: 0.624266 cumulative IPC: 0.743308 (Simulation time: 0 hr 33 min 23 sec) 
Heartbeat CPU 0 instructions: 47000002 cycles: 56371117 heartbeat IPC: 0.593394 cumulative IPC: 0.738267 (Simulation time: 0 hr 34 min 9 sec) 
Heartbeat CPU 0 instructions: 48000000 cycles: 57900329 heartbeat IPC: 0.65393 cumulative IPC: 0.73577 (Simulation time: 0 hr 34 min 55 sec) 
Heartbeat CPU 0 instructions: 49000002 cycles: 59555657 heartbeat IPC: 0.604111 cumulative IPC: 0.731681 (Simulation time: 0 hr 35 min 44 sec) 
Heartbeat CPU 0 instructions: 50000002 cycles: 61113260 heartbeat IPC: 0.642012 cumulative IPC: 0.729135 (Simulation time: 0 hr 36 min 32 sec) 
Heartbeat CPU 0 instructions: 51000000 cycles: 62759945 heartbeat IPC: 0.607279 cumulative IPC: 0.725584 (Simulation time: 0 hr 37 min 18 sec) 
Heartbeat CPU 0 instructions: 52000000 cycles: 64286846 heartbeat IPC: 0.654921 cumulative IPC: 0.723725 (Simulation time: 0 hr 38 min 3 sec) 
Heartbeat CPU 0 instructions: 53000003 cycles: 65978626 heartbeat IPC: 0.591095 cumulative IPC: 0.719968 (Simulation time: 0 hr 38 min 49 sec) 
Heartbeat CPU 0 instructions: 54000003 cycles: 67503964 heartbeat IPC: 0.655592 cumulative IPC: 0.718365 (Simulation time: 0 hr 39 min 38 sec) 
Heartbeat CPU 0 instructions: 55000001 cycles: 69448294 heartbeat IPC: 0.514315 cumulative IPC: 0.712087 (Simulation time: 0 hr 40 min 26 sec) 
Heartbeat CPU 0 instructions: 56000000 cycles: 71844507 heartbeat IPC: 0.417325 cumulative IPC: 0.701318 (Simulation time: 0 hr 41 min 19 sec) 
Heartbeat CPU 0 instructions: 57000003 cycles: 74220049 heartbeat IPC: 0.420958 cumulative IPC: 0.691519 (Simulation time: 0 hr 42 min 14 sec) 
Heartbeat CPU 0 instructions: 58000001 cycles: 76629336 heartbeat IPC: 0.41506 cumulative IPC: 0.682055 (Simulation time: 0 hr 43 min 6 sec) 
Heartbeat CPU 0 instructions: 59000003 cycles: 79006023 heartbeat IPC: 0.420755 cumulative IPC: 0.673518 (Simulation time: 0 hr 44 min 2 sec) 
Heartbeat CPU 0 instructions: 60000000 cycles: 81344795 heartbeat IPC: 0.427574 cumulative IPC: 0.665858 (Simulation time: 0 hr 45 min 2 sec) 
Heartbeat CPU 0 instructions: 61000003 cycles: 83673130 heartbeat IPC: 0.429493 cumulative IPC: 0.65875 (Simulation time: 0 hr 46 min 2 sec) 
Heartbeat CPU 0 instructions: 62000001 cycles: 86007628 heartbeat IPC: 0.428357 cumulative IPC: 0.652006 (Simulation time: 0 hr 47 min 1 sec) 
Heartbeat CPU 0 instructions: 63000000 cycles: 87973008 heartbeat IPC: 0.508807 cumulative IPC: 0.648562 (Simulation time: 0 hr 47 min 55 sec) 
Heartbeat CPU 0 instructions: 64000000 cycles: 89186076 heartbeat IPC: 0.824356 cumulative IPC: 0.651133 (Simulation time: 0 hr 48 min 44 sec) 
Heartbeat CPU 0 instructions: 65000000 cycles: 90436855 heartbeat IPC: 0.799502 cumulative IPC: 0.653338 (Simulation time: 0 hr 49 min 33 sec) 
Heartbeat CPU 0 instructions: 66000002 cycles: 91669555 heartbeat IPC: 0.811229 cumulative IPC: 0.655616 (Simulation time: 0 hr 50 min 25 sec) 
Heartbeat CPU 0 instructions: 67000001 cycles: 92891172 heartbeat IPC: 0.818586 cumulative IPC: 0.657914 (Simulation time: 0 hr 51 min 13 sec) 
Heartbeat CPU 0 instructions: 68000000 cycles: 94174317 heartbeat IPC: 0.779334 cumulative IPC: 0.659686 (Simulation time: 0 hr 51 min 58 sec) 
Heartbeat CPU 0 instructions: 69000000 cycles: 95388162 heartbeat IPC: 0.823828 cumulative IPC: 0.661922 (Simulation time: 0 hr 52 min 41 sec) 
Heartbeat CPU 0 instructions: 70000000 cycles: 96650960 heartbeat IPC: 0.791892 cumulative IPC: 0.663737 (Simulation time: 0 hr 53 min 22 sec) 
Heartbeat CPU 0 instructions: 71000003 cycles: 97866959 heartbeat IPC: 0.822372 cumulative IPC: 0.665843 (Simulation time: 0 hr 54 min 4 sec) 
Heartbeat CPU 0 instructions: 72000000 cycles: 99117516 heartbeat IPC: 0.799641 cumulative IPC: 0.667645 (Simulation time: 0 hr 54 min 44 sec) 
Heartbeat CPU 0 instructions: 73000000 cycles: 100362637 heartbeat IPC: 0.803135 cumulative IPC: 0.669437 (Simulation time: 0 hr 55 min 25 sec) 
Heartbeat CPU 0 instructions: 74000000 cycles: 101587363 heartbeat IPC: 0.816509 cumulative IPC: 0.671327 (Simulation time: 0 hr 56 min 6 sec) 
Heartbeat CPU 0 instructions: 75000003 cycles: 102858198 heartbeat IPC: 0.786887 cumulative IPC: 0.672847 (Simulation time: 0 hr 56 min 43 sec) 
Heartbeat CPU 0 instructions: 76000000 cycles: 104075959 heartbeat IPC: 0.821177 cumulative IPC: 0.674693 (Simulation time: 0 hr 57 min 20 sec) 
Heartbeat CPU 0 instructions: 77000000 cycles: 105344925 heartbeat IPC: 0.788043 cumulative IPC: 0.676145 (Simulation time: 0 hr 57 min 59 sec) 
Heartbeat CPU 0 instructions: 78000001 cycles: 106581965 heartbeat IPC: 0.808382 cumulative IPC: 0.677775 (Simulation time: 0 hr 58 min 38 sec) 
Heartbeat CPU 0 instructions: 79000001 cycles: 107844746 heartbeat IPC: 0.791903 cumulative IPC: 0.679194 (Simulation time: 0 hr 59 min 15 sec) 
Heartbeat CPU 0 instructions: 80000000 cycles: 109086905 heartbeat IPC: 0.805049 cumulative IPC: 0.680714 (Simulation time: 0 hr 59 min 51 sec) 
Heartbeat CPU 0 instructions: 81000000 cycles: 110308390 heartbeat IPC: 0.818676 cumulative IPC: 0.682334 (Simulation time: 1 hr 0 min 30 sec) 
Heartbeat CPU 0 instructions: 82000003 cycles: 111574460 heartbeat IPC: 0.789848 cumulative IPC: 0.683626 (Simulation time: 1 hr 1 min 7 sec) 
Heartbeat CPU 0 instructions: 83000001 cycles: 112804215 heartbeat IPC: 0.813168 cumulative IPC: 0.685121 (Simulation time: 1 hr 1 min 45 sec) 
Heartbeat CPU 0 instructions: 84000000 cycles: 114058588 heartbeat IPC: 0.79721 cumulative IPC: 0.686426 (Simulation time: 1 hr 2 min 18 sec) 
Heartbeat CPU 0 instructions: 85000001 cycles: 115286874 heartbeat IPC: 0.814143 cumulative IPC: 0.687864 (Simulation time: 1 hr 2 min 52 sec) 
Heartbeat CPU 0 instructions: 86000003 cycles: 116542755 heartbeat IPC: 0.796255 cumulative IPC: 0.689099 (Simulation time: 1 hr 3 min 24 sec) 
Heartbeat CPU 0 instructions: 87000001 cycles: 117775232 heartbeat IPC: 0.811373 cumulative IPC: 0.69045 (Simulation time: 1 hr 3 min 56 sec) 
Heartbeat CPU 0 instructions: 88000000 cycles: 119013023 heartbeat IPC: 0.80789 cumulative IPC: 0.691739 (Simulation time: 1 hr 4 min 25 sec) 
Heartbeat CPU 0 instructions: 89000001 cycles: 120271158 heartbeat IPC: 0.794828 cumulative IPC: 0.692877 (Simulation time: 1 hr 4 min 51 sec) 
Heartbeat CPU 0 instructions: 90000002 cycles: 121501918 heartbeat IPC: 0.812507 cumulative IPC: 0.694154 (Simulation time: 1 hr 5 min 16 sec) 
Heartbeat CPU 0 instructions: 91000000 cycles: 122760437 heartbeat IPC: 0.794583 cumulative IPC: 0.695239 (Simulation time: 1 hr 5 min 40 sec) 
Heartbeat CPU 0 instructions: 92000000 cycles: 123986356 heartbeat IPC: 0.815715 cumulative IPC: 0.696494 (Simulation time: 1 hr 6 min 5 sec) 
Heartbeat CPU 0 instructions: 93000002 cycles: 125259286 heartbeat IPC: 0.785591 cumulative IPC: 0.697447 (Simulation time: 1 hr 6 min 29 sec) 
Heartbeat CPU 0 instructions: 94000000 cycles: 126479578 heartbeat IPC: 0.819474 cumulative IPC: 0.698685 (Simulation time: 1 hr 6 min 53 sec) 
Heartbeat CPU 0 instructions: 95000003 cycles: 127702649 heartbeat IPC: 0.817616 cumulative IPC: 0.699883 (Simulation time: 1 hr 7 min 18 sec) 
Heartbeat CPU 0 instructions: 96000000 cycles: 128967056 heartbeat IPC: 0.790882 cumulative IPC: 0.700821 (Simulation time: 1 hr 7 min 42 sec) 
Heartbeat CPU 0 instructions: 97000001 cycles: 130186131 heartbeat IPC: 0.820295 cumulative IPC: 0.701996 (Simulation time: 1 hr 8 min 6 sec) 
Heartbeat CPU 0 instructions: 98000002 cycles: 131460635 heartbeat IPC: 0.78462 cumulative IPC: 0.702837 (Simulation time: 1 hr 8 min 31 sec) 
Heartbeat CPU 0 instructions: 99000000 cycles: 132684172 heartbeat IPC: 0.817301 cumulative IPC: 0.703945 (Simulation time: 1 hr 8 min 56 sec) 
Heartbeat CPU 0 instructions: 100000000 cycles: 133957893 heartbeat IPC: 0.785101 cumulative IPC: 0.704754 (Simulation time: 1 hr 9 min 20 sec) 
Heartbeat CPU 0 instructions: 101000000 cycles: 135183691 heartbeat IPC: 0.815795 cumulative IPC: 0.70581 (Simulation time: 1 hr 9 min 45 sec) 
Heartbeat CPU 0 instructions: 102000001 cycles: 136411541 heartbeat IPC: 0.814433 cumulative IPC: 0.706834 (Simulation time: 1 hr 10 min 9 sec) 
Heartbeat CPU 0 instructions: 103000002 cycles: 137686022 heartbeat IPC: 0.784634 cumulative IPC: 0.707589 (Simulation time: 1 hr 10 min 33 sec) 
Heartbeat CPU 0 instructions: 104000000 cycles: 138903190 heartbeat IPC: 0.821578 cumulative IPC: 0.708635 (Simulation time: 1 hr 10 min 56 sec) 
Heartbeat CPU 0 instructions: 105000001 cycles: 140177308 heartbeat IPC: 0.784857 cumulative IPC: 0.70936 (Simulation time: 1 hr 11 min 18 sec) 
Heartbeat CPU 0 instructions: 106000002 cycles: 141397180 heartbeat IPC: 0.819759 cumulative IPC: 0.710356 (Simulation time: 1 hr 11 min 38 sec) 
Heartbeat CPU 0 instructions: 107000000 cycles: 142662468 heartbeat IPC: 0.790332 cumulative IPC: 0.711098 (Simulation time: 1 hr 11 min 58 sec) 
Heartbeat CPU 0 instructions: 108000000 cycles: 143897215 heartbeat IPC: 0.809883 cumulative IPC: 0.711984 (Simulation time: 1 hr 12 min 17 sec) 
Heartbeat CPU 0 instructions: 109000003 cycles: 145122675 heartbeat IPC: 0.816023 cumulative IPC: 0.712902 (Simulation time: 1 hr 12 min 36 sec) 
Heartbeat CPU 0 instructions: 110000001 cycles: 146389892 heartbeat IPC: 0.789129 cumulative IPC: 0.713592 (Simulation time: 1 hr 12 min 53 sec) 
Finished CPU 0 instructions: 100000000 cycles: 140136144 cummulative IPC: 0.713592 (Simulation time: 1 hr 12 min 53 sec) 

ChampSim completed all CPUs

Region of Interest Statistics

CPU 0 cummulative IPC: 0.713592 instructions: 100000000 cycles: 140136144
LLC TOTAL     ACCESS:    3757322  HIT:    1646900  MISS:    2110422
LLC LOAD      ACCESS:     402166  HIT:     151581  MISS:     250585
LLC RFO       ACCESS:     463760  HIT:     118489  MISS:     345271
LLC PREFETCH  ACCESS:    2142228  HIT:     630720  MISS:    1511508
LLC WRITEBACK ACCESS:     749168  HIT:     746110  MISS:       3058
