
*** ChampSim Multicore Out-of-Order Simulator ***

Warmup Instructions: 10000000
Simulation Instructions: 100000000
Configuration: 2
Number of CPUs: 1
LLC sets: 2048
LLC ways: 16
Off-chip DRAM Channels: 1 Width: 64-bit Data Rate: 1600 MT/s

CPU 0 runs /datasets/cs240c-wi22-a00-public/data/Assignment2-gz/gcc_56B.trace.gz
CPU 0 L1D next line prefetcher
CPU 0 L2C IP-based stride prefetcher
Initialize LRU replacement state
Heartbeat CPU 0 instructions: 1000003 cycles: 954151 heartbeat IPC: 1.04806 cumulative IPC: 1.04806 (Simulation time: 0 hr 0 min 39 sec) 
Heartbeat CPU 0 instructions: 2000001 cycles: 1898349 heartbeat IPC: 1.0591 cumulative IPC: 1.05355 (Simulation time: 0 hr 1 min 11 sec) 
Heartbeat CPU 0 instructions: 3000001 cycles: 2885593 heartbeat IPC: 1.01292 cumulative IPC: 1.03965 (Simulation time: 0 hr 1 min 46 sec) 
Heartbeat CPU 0 instructions: 4000000 cycles: 3848221 heartbeat IPC: 1.03882 cumulative IPC: 1.03944 (Simulation time: 0 hr 2 min 22 sec) 
Heartbeat CPU 0 instructions: 5000002 cycles: 4737701 heartbeat IPC: 1.12425 cumulative IPC: 1.05536 (Simulation time: 0 hr 2 min 59 sec) 
Heartbeat CPU 0 instructions: 6000000 cycles: 5685656 heartbeat IPC: 1.0549 cumulative IPC: 1.05529 (Simulation time: 0 hr 3 min 34 sec) 
Heartbeat CPU 0 instructions: 7000000 cycles: 6649891 heartbeat IPC: 1.03709 cumulative IPC: 1.05265 (Simulation time: 0 hr 4 min 12 sec) 
Heartbeat CPU 0 instructions: 8000000 cycles: 7611114 heartbeat IPC: 1.04034 cumulative IPC: 1.05109 (Simulation time: 0 hr 5 min 2 sec) 
Heartbeat CPU 0 instructions: 9000000 cycles: 8622586 heartbeat IPC: 0.988658 cumulative IPC: 1.04377 (Simulation time: 0 hr 5 min 48 sec) 
Heartbeat CPU 0 instructions: 10000002 cycles: 9583097 heartbeat IPC: 1.04111 cumulative IPC: 1.0435 (Simulation time: 0 hr 6 min 35 sec) 

Warmup complete CPU 0 instructions: 10000002 cycles: 9583097 (Simulation time: 0 hr 6 min 35 sec) 

Heartbeat CPU 0 instructions: 11000000 cycles: 10925643 heartbeat IPC: 0.744852 cumulative IPC: 0.744852 (Simulation time: 0 hr 7 min 18 sec) 
Heartbeat CPU 0 instructions: 12000000 cycles: 12345244 heartbeat IPC: 0.704423 cumulative IPC: 0.724074 (Simulation time: 0 hr 8 min 5 sec) 
Heartbeat CPU 0 instructions: 13000001 cycles: 13726402 heartbeat IPC: 0.724031 cumulative IPC: 0.724059 (Simulation time: 0 hr 8 min 48 sec) 
Heartbeat CPU 0 instructions: 14000000 cycles: 15053234 heartbeat IPC: 0.753674 cumulative IPC: 0.731243 (Simulation time: 0 hr 9 min 37 sec) 
Heartbeat CPU 0 instructions: 15000003 cycles: 16421666 heartbeat IPC: 0.730766 cumulative IPC: 0.731147 (Simulation time: 0 hr 10 min 26 sec) 
Heartbeat CPU 0 instructions: 16000000 cycles: 17740284 heartbeat IPC: 0.758367 cumulative IPC: 0.735547 (Simulation time: 0 hr 11 min 13 sec) 
Heartbeat CPU 0 instructions: 17000001 cycles: 19053509 heartbeat IPC: 0.761485 cumulative IPC: 0.739144 (Simulation time: 0 hr 12 min 3 sec) 
Heartbeat CPU 0 instructions: 18000000 cycles: 20435147 heartbeat IPC: 0.723778 cumulative IPC: 0.737188 (Simulation time: 0 hr 12 min 54 sec) 
Heartbeat CPU 0 instructions: 19000000 cycles: 21802032 heartbeat IPC: 0.73159 cumulative IPC: 0.736562 (Simulation time: 0 hr 13 min 43 sec) 
Heartbeat CPU 0 instructions: 20000000 cycles: 23157973 heartbeat IPC: 0.737495 cumulative IPC: 0.736655 (Simulation time: 0 hr 14 min 24 sec) 
Heartbeat CPU 0 instructions: 21000000 cycles: 24493210 heartbeat IPC: 0.748931 cumulative IPC: 0.737754 (Simulation time: 0 hr 15 min 4 sec) 
Heartbeat CPU 0 instructions: 22000000 cycles: 25811246 heartbeat IPC: 0.758705 cumulative IPC: 0.739456 (Simulation time: 0 hr 15 min 45 sec) 
Heartbeat CPU 0 instructions: 23000000 cycles: 27137065 heartbeat IPC: 0.754251 cumulative IPC: 0.740573 (Simulation time: 0 hr 16 min 23 sec) 
Heartbeat CPU 0 instructions: 24000000 cycles: 28486479 heartbeat IPC: 0.741062 cumulative IPC: 0.740608 (Simulation time: 0 hr 16 min 59 sec) 
Heartbeat CPU 0 instructions: 25000000 cycles: 29846219 heartbeat IPC: 0.735435 cumulative IPC: 0.740261 (Simulation time: 0 hr 17 min 42 sec) 
Heartbeat CPU 0 instructions: 26000002 cycles: 31244517 heartbeat IPC: 0.715157 cumulative IPC: 0.73864 (Simulation time: 0 hr 18 min 27 sec) 
Heartbeat CPU 0 instructions: 27000000 cycles: 32620106 heartbeat IPC: 0.72696 cumulative IPC: 0.737943 (Simulation time: 0 hr 19 min 5 sec) 
Heartbeat CPU 0 instructions: 28000000 cycles: 33947189 heartbeat IPC: 0.753532 cumulative IPC: 0.738792 (Simulation time: 0 hr 19 min 47 sec) 
Heartbeat CPU 0 instructions: 29000000 cycles: 35279646 heartbeat IPC: 0.750493 cumulative IPC: 0.739399 (Simulation time: 0 hr 20 min 28 sec) 
Heartbeat CPU 0 instructions: 30000000 cycles: 36615852 heartbeat IPC: 0.748388 cumulative IPC: 0.739843 (Simulation time: 0 hr 21 min 13 sec) 
Heartbeat CPU 0 instructions: 31000000 cycles: 37960000 heartbeat IPC: 0.743966 cumulative IPC: 0.740038 (Simulation time: 0 hr 21 min 49 sec) 
Heartbeat CPU 0 instructions: 32000000 cycles: 39326193 heartbeat IPC: 0.731961 cumulative IPC: 0.739667 (Simulation time: 0 hr 22 min 31 sec) 
Heartbeat CPU 0 instructions: 33000002 cycles: 40726549 heartbeat IPC: 0.714106 cumulative IPC: 0.738518 (Simulation time: 0 hr 23 min 10 sec) 
Heartbeat CPU 0 instructions: 34000002 cycles: 42083970 heartbeat IPC: 0.736691 cumulative IPC: 0.738442 (Simulation time: 0 hr 23 min 47 sec) 
Heartbeat CPU 0 instructions: 35000002 cycles: 43427952 heartbeat IPC: 0.744058 cumulative IPC: 0.738665 (Simulation time: 0 hr 24 min 27 sec) 
Heartbeat CPU 0 instructions: 36000000 cycles: 44750979 heartbeat IPC: 0.755841 cumulative IPC: 0.739311 (Simulation time: 0 hr 25 min 12 sec) 
Heartbeat CPU 0 instructions: 37000000 cycles: 46058938 heartbeat IPC: 0.76455 cumulative IPC: 0.740216 (Simulation time: 0 hr 25 min 53 sec) 
Heartbeat CPU 0 instructions: 38000002 cycles: 47386884 heartbeat IPC: 0.753044 cumulative IPC: 0.740667 (Simulation time: 0 hr 26 min 32 sec) 
Heartbeat CPU 0 instructions: 39000000 cycles: 48784288 heartbeat IPC: 0.715611 cumulative IPC: 0.739773 (Simulation time: 0 hr 27 min 10 sec) 
Heartbeat CPU 0 instructions: 40000000 cycles: 50143144 heartbeat IPC: 0.735913 cumulative IPC: 0.739644 (Simulation time: 0 hr 27 min 50 sec) 
Heartbeat CPU 0 instructions: 41000001 cycles: 51480216 heartbeat IPC: 0.747904 cumulative IPC: 0.739908 (Simulation time: 0 hr 28 min 29 sec) 
Heartbeat CPU 0 instructions: 42000003 cycles: 52806373 heartbeat IPC: 0.75406 cumulative IPC: 0.740342 (Simulation time: 0 hr 29 min 4 sec) 
Heartbeat CPU 0 instructions: 43000001 cycles: 54139873 heartbeat IPC: 0.749905 cumulative IPC: 0.740628 (Simulation time: 0 hr 29 min 44 sec) 
Heartbeat CPU 0 instructions: 44000000 cycles: 55463934 heartbeat IPC: 0.755251 cumulative IPC: 0.74105 (Simulation time: 0 hr 30 min 24 sec) 
Heartbeat CPU 0 instructions: 45000000 cycles: 56828976 heartbeat IPC: 0.732578 cumulative IPC: 0.740805 (Simulation time: 0 hr 31 min 10 sec) 
Heartbeat CPU 0 instructions: 46000000 cycles: 58219621 heartbeat IPC: 0.719091 cumulative IPC: 0.740184 (Simulation time: 0 hr 31 min 57 sec) 
Heartbeat CPU 0 instructions: 47000002 cycles: 59591964 heartbeat IPC: 0.728682 cumulative IPC: 0.739869 (Simulation time: 0 hr 32 min 41 sec) 
Heartbeat CPU 0 instructions: 48000000 cycles: 60936804 heartbeat IPC: 0.743581 cumulative IPC: 0.739966 (Simulation time: 0 hr 33 min 20 sec) 
Heartbeat CPU 0 instructions: 49000002 cycles: 62263672 heartbeat IPC: 0.753656 cumulative IPC: 0.740311 (Simulation time: 0 hr 34 min 6 sec) 
Heartbeat CPU 0 instructions: 50000000 cycles: 63583395 heartbeat IPC: 0.757733 cumulative IPC: 0.740737 (Simulation time: 0 hr 34 min 53 sec) 
Heartbeat CPU 0 instructions: 51000000 cycles: 64937091 heartbeat IPC: 0.738718 cumulative IPC: 0.740687 (Simulation time: 0 hr 35 min 36 sec) 
Heartbeat CPU 0 instructions: 52000000 cycles: 66327355 heartbeat IPC: 0.719288 cumulative IPC: 0.740163 (Simulation time: 0 hr 36 min 21 sec) 
Heartbeat CPU 0 instructions: 53000001 cycles: 67663772 heartbeat IPC: 0.74827 cumulative IPC: 0.74035 (Simulation time: 0 hr 37 min 5 sec) 
Heartbeat CPU 0 instructions: 54000000 cycles: 68976872 heartbeat IPC: 0.761556 cumulative IPC: 0.740818 (Simulation time: 0 hr 37 min 49 sec) 
Heartbeat CPU 0 instructions: 55000001 cycles: 70282767 heartbeat IPC: 0.765759 cumulative IPC: 0.741355 (Simulation time: 0 hr 38 min 36 sec) 
Heartbeat CPU 0 instructions: 56000000 cycles: 71606020 heartbeat IPC: 0.755713 cumulative IPC: 0.741661 (Simulation time: 0 hr 39 min 20 sec) 
Heartbeat CPU 0 instructions: 57000001 cycles: 72939129 heartbeat IPC: 0.750127 cumulative IPC: 0.741839 (Simulation time: 0 hr 40 min 3 sec) 
Heartbeat CPU 0 instructions: 58000000 cycles: 74312599 heartbeat IPC: 0.728082 cumulative IPC: 0.741547 (Simulation time: 0 hr 40 min 48 sec) 
Heartbeat CPU 0 instructions: 59000000 cycles: 75706290 heartbeat IPC: 0.717519 cumulative IPC: 0.741041 (Simulation time: 0 hr 41 min 33 sec) 
Heartbeat CPU 0 instructions: 60000000 cycles: 77081565 heartbeat IPC: 0.727127 cumulative IPC: 0.740758 (Simulation time: 0 hr 42 min 19 sec) 
Heartbeat CPU 0 instructions: 61000000 cycles: 78411997 heartbeat IPC: 0.751636 cumulative IPC: 0.740968 (Simulation time: 0 hr 43 min 4 sec) 
Heartbeat CPU 0 instructions: 62000002 cycles: 79772077 heartbeat IPC: 0.735252 cumulative IPC: 0.740857 (Simulation time: 0 hr 43 min 48 sec) 
Heartbeat CPU 0 instructions: 63000003 cycles: 81087443 heartbeat IPC: 0.760245 cumulative IPC: 0.741214 (Simulation time: 0 hr 44 min 35 sec) 
Heartbeat CPU 0 instructions: 64000000 cycles: 82403579 heartbeat IPC: 0.759798 cumulative IPC: 0.74155 (Simulation time: 0 hr 45 min 20 sec) 
Heartbeat CPU 0 instructions: 65000000 cycles: 83745209 heartbeat IPC: 0.745362 cumulative IPC: 0.741619 (Simulation time: 0 hr 46 min 4 sec) 
Heartbeat CPU 0 instructions: 66000002 cycles: 85136387 heartbeat IPC: 0.718817 cumulative IPC: 0.741199 (Simulation time: 0 hr 46 min 48 sec) 
Heartbeat CPU 0 instructions: 67000002 cycles: 86522823 heartbeat IPC: 0.721274 cumulative IPC: 0.74084 (Simulation time: 0 hr 47 min 35 sec) 
Heartbeat CPU 0 instructions: 68000000 cycles: 87871334 heartbeat IPC: 0.741557 cumulative IPC: 0.740852 (Simulation time: 0 hr 48 min 21 sec) 
Heartbeat CPU 0 instructions: 69000000 cycles: 89198897 heartbeat IPC: 0.75326 cumulative IPC: 0.741059 (Simulation time: 0 hr 49 min 5 sec) 
Heartbeat CPU 0 instructions: 70000000 cycles: 90524131 heartbeat IPC: 0.754584 cumulative IPC: 0.74128 (Simulation time: 0 hr 49 min 51 sec) 
Heartbeat CPU 0 instructions: 71000003 cycles: 91864599 heartbeat IPC: 0.74601 cumulative IPC: 0.741357 (Simulation time: 0 hr 50 min 37 sec) 
Heartbeat CPU 0 instructions: 72000000 cycles: 93202566 heartbeat IPC: 0.7474 cumulative IPC: 0.741454 (Simulation time: 0 hr 51 min 21 sec) 
Heartbeat CPU 0 instructions: 73000003 cycles: 94569004 heartbeat IPC: 0.731832 cumulative IPC: 0.741299 (Simulation time: 0 hr 52 min 3 sec) 
Heartbeat CPU 0 instructions: 74000001 cycles: 95967610 heartbeat IPC: 0.714996 cumulative IPC: 0.740874 (Simulation time: 0 hr 52 min 49 sec) 
Heartbeat CPU 0 instructions: 75000003 cycles: 97339777 heartbeat IPC: 0.728776 cumulative IPC: 0.740684 (Simulation time: 0 hr 53 min 36 sec) 
Heartbeat CPU 0 instructions: 76000000 cycles: 98681301 heartbeat IPC: 0.745419 cumulative IPC: 0.740756 (Simulation time: 0 hr 54 min 17 sec) 
Heartbeat CPU 0 instructions: 77000003 cycles: 100014159 heartbeat IPC: 0.75027 cumulative IPC: 0.740896 (Simulation time: 0 hr 55 min 1 sec) 
Heartbeat CPU 0 instructions: 78000001 cycles: 101343561 heartbeat IPC: 0.752216 cumulative IPC: 0.74106 (Simulation time: 0 hr 55 min 43 sec) 
Heartbeat CPU 0 instructions: 79000000 cycles: 102698362 heartbeat IPC: 0.738115 cumulative IPC: 0.741017 (Simulation time: 0 hr 56 min 27 sec) 
Heartbeat CPU 0 instructions: 80000000 cycles: 104042109 heartbeat IPC: 0.744188 cumulative IPC: 0.741062 (Simulation time: 0 hr 57 min 10 sec) 
Heartbeat CPU 0 instructions: 81000002 cycles: 105418551 heartbeat IPC: 0.726512 cumulative IPC: 0.740853 (Simulation time: 0 hr 57 min 52 sec) 
Heartbeat CPU 0 instructions: 82000000 cycles: 106789394 heartbeat IPC: 0.729477 cumulative IPC: 0.740693 (Simulation time: 0 hr 58 min 35 sec) 
Heartbeat CPU 0 instructions: 83000003 cycles: 108120831 heartbeat IPC: 0.75107 cumulative IPC: 0.740833 (Simulation time: 0 hr 59 min 19 sec) 
Heartbeat CPU 0 instructions: 84000000 cycles: 109462838 heartbeat IPC: 0.74515 cumulative IPC: 0.740891 (Simulation time: 1 hr 0 min 3 sec) 
Heartbeat CPU 0 instructions: 85000002 cycles: 110775920 heartbeat IPC: 0.761569 cumulative IPC: 0.741159 (Simulation time: 1 hr 0 min 45 sec) 
Heartbeat CPU 0 instructions: 86000003 cycles: 112077148 heartbeat IPC: 0.768506 cumulative IPC: 0.741506 (Simulation time: 1 hr 1 min 24 sec) 
Heartbeat CPU 0 instructions: 87000000 cycles: 113456882 heartbeat IPC: 0.724775 cumulative IPC: 0.741284 (Simulation time: 1 hr 2 min 0 sec) 
Heartbeat CPU 0 instructions: 88000000 cycles: 114806811 heartbeat IPC: 0.74078 cumulative IPC: 0.741278 (Simulation time: 1 hr 2 min 33 sec) 
Heartbeat CPU 0 instructions: 89000000 cycles: 116165622 heartbeat IPC: 0.735938 cumulative IPC: 0.74121 (Simulation time: 1 hr 3 min 5 sec) 
Heartbeat CPU 0 instructions: 90000000 cycles: 117482963 heartbeat IPC: 0.759105 cumulative IPC: 0.741428 (Simulation time: 1 hr 3 min 38 sec) 
Heartbeat CPU 0 instructions: 91000001 cycles: 118791994 heartbeat IPC: 0.763925 cumulative IPC: 0.741698 (Simulation time: 1 hr 4 min 8 sec) 
Heartbeat CPU 0 instructions: 92000000 cycles: 120108245 heartbeat IPC: 0.759733 cumulative IPC: 0.741913 (Simulation time: 1 hr 4 min 37 sec) 
Heartbeat CPU 0 instructions: 93000003 cycles: 121490234 heartbeat IPC: 0.723597 cumulative IPC: 0.741686 (Simulation time: 1 hr 5 min 5 sec) 
Heartbeat CPU 0 instructions: 94000000 cycles: 122832008 heartbeat IPC: 0.74528 cumulative IPC: 0.741729 (Simulation time: 1 hr 5 min 33 sec) 
Heartbeat CPU 0 instructions: 95000000 cycles: 124182687 heartbeat IPC: 0.740368 cumulative IPC: 0.741713 (Simulation time: 1 hr 5 min 59 sec) 
Heartbeat CPU 0 instructions: 96000000 cycles: 125514853 heartbeat IPC: 0.750657 cumulative IPC: 0.741816 (Simulation time: 1 hr 6 min 25 sec) 
Heartbeat CPU 0 instructions: 97000000 cycles: 126825580 heartbeat IPC: 0.762935 cumulative IPC: 0.742052 (Simulation time: 1 hr 6 min 52 sec) 
Heartbeat CPU 0 instructions: 98000003 cycles: 128133527 heartbeat IPC: 0.764559 cumulative IPC: 0.7423 (Simulation time: 1 hr 7 min 16 sec) 
Heartbeat CPU 0 instructions: 99000000 cycles: 129519507 heartbeat IPC: 0.721509 cumulative IPC: 0.74206 (Simulation time: 1 hr 7 min 41 sec) 
Heartbeat CPU 0 instructions: 100000000 cycles: 130861255 heartbeat IPC: 0.745296 cumulative IPC: 0.742096 (Simulation time: 1 hr 8 min 5 sec) 
Heartbeat CPU 0 instructions: 101000000 cycles: 132207551 heartbeat IPC: 0.742779 cumulative IPC: 0.742103 (Simulation time: 1 hr 8 min 29 sec) 
Heartbeat CPU 0 instructions: 102000001 cycles: 133520737 heartbeat IPC: 0.761508 cumulative IPC: 0.742309 (Simulation time: 1 hr 8 min 52 sec) 
Heartbeat CPU 0 instructions: 103000001 cycles: 134822652 heartbeat IPC: 0.768099 cumulative IPC: 0.742577 (Simulation time: 1 hr 9 min 16 sec) 
Heartbeat CPU 0 instructions: 104000000 cycles: 136123858 heartbeat IPC: 0.768517 cumulative IPC: 0.742844 (Simulation time: 1 hr 9 min 40 sec) 
Heartbeat CPU 0 instructions: 105000002 cycles: 137503160 heartbeat IPC: 0.725006 cumulative IPC: 0.742651 (Simulation time: 1 hr 10 min 3 sec) 
Heartbeat CPU 0 instructions: 106000000 cycles: 138907099 heartbeat IPC: 0.71228 cumulative IPC: 0.742322 (Simulation time: 1 hr 10 min 25 sec) 
Heartbeat CPU 0 instructions: 107000002 cycles: 140295563 heartbeat IPC: 0.720222 cumulative IPC: 0.742087 (Simulation time: 1 hr 10 min 48 sec) 
Heartbeat CPU 0 instructions: 108000000 cycles: 141651445 heartbeat IPC: 0.737526 cumulative IPC: 0.74204 (Simulation time: 1 hr 11 min 10 sec) 
Heartbeat CPU 0 instructions: 109000000 cycles: 142986649 heartbeat IPC: 0.748949 cumulative IPC: 0.742109 (Simulation time: 1 hr 11 min 30 sec) 
Heartbeat CPU 0 instructions: 110000000 cycles: 144315511 heartbeat IPC: 0.752524 cumulative IPC: 0.742212 (Simulation time: 1 hr 11 min 51 sec) 
Finished CPU 0 instructions: 100000003 cycles: 134732416 cummulative IPC: 0.742212 (Simulation time: 1 hr 11 min 51 sec) 

ChampSim completed all CPUs

Region of Interest Statistics

CPU 0 cummulative IPC: 0.742212 instructions: 100000003 cycles: 134732416
LLC TOTAL     ACCESS:   21346126  HIT:   21273695  MISS:      72431
LLC LOAD      ACCESS:     165899  HIT:     131232  MISS:      34667
LLC RFO       ACCESS:   10463422  HIT:   10457726  MISS:       5696
LLC PREFETCH  ACCESS:     183317  HIT:     151249  MISS:      32068
LLC WRITEBACK ACCESS:   10533488  HIT:   10533488  MISS:          0
