
*** ChampSim Multicore Out-of-Order Simulator ***

Warmup Instructions: 10000000
Simulation Instructions: 100000000
Configuration: 2
Number of CPUs: 1
LLC sets: 2048
LLC ways: 16
Off-chip DRAM Channels: 1 Width: 64-bit Data Rate: 1600 MT/s

CPU 0 runs /datasets/cs240c-wi22-a00-public/data/Assignment2-gz/GemsFDTD_109B.trace.gz
CPU 0 L1D next line prefetcher
CPU 0 L2C IP-based stride prefetcher
Initialize LRU replacement state
Heartbeat CPU 0 instructions: 1000002 cycles: 579772 heartbeat IPC: 1.72482 cumulative IPC: 1.72482 (Simulation time: 0 hr 0 min 47 sec) 
Heartbeat CPU 0 instructions: 2000001 cycles: 1159543 heartbeat IPC: 1.72482 cumulative IPC: 1.72482 (Simulation time: 0 hr 1 min 26 sec) 
Heartbeat CPU 0 instructions: 3000000 cycles: 1738728 heartbeat IPC: 1.72656 cumulative IPC: 1.7254 (Simulation time: 0 hr 2 min 6 sec) 
Heartbeat CPU 0 instructions: 4000000 cycles: 2317724 heartbeat IPC: 1.72713 cumulative IPC: 1.72583 (Simulation time: 0 hr 2 min 52 sec) 
Heartbeat CPU 0 instructions: 5000000 cycles: 2897563 heartbeat IPC: 1.72462 cumulative IPC: 1.72559 (Simulation time: 0 hr 3 min 38 sec) 
Heartbeat CPU 0 instructions: 6000002 cycles: 3478298 heartbeat IPC: 1.72196 cumulative IPC: 1.72498 (Simulation time: 0 hr 4 min 22 sec) 
Heartbeat CPU 0 instructions: 7000001 cycles: 4059003 heartbeat IPC: 1.72204 cumulative IPC: 1.72456 (Simulation time: 0 hr 5 min 10 sec) 
Heartbeat CPU 0 instructions: 8000000 cycles: 4639201 heartbeat IPC: 1.72355 cumulative IPC: 1.72443 (Simulation time: 0 hr 5 min 55 sec) 
Heartbeat CPU 0 instructions: 9000002 cycles: 5219388 heartbeat IPC: 1.72359 cumulative IPC: 1.72434 (Simulation time: 0 hr 6 min 40 sec) 
Heartbeat CPU 0 instructions: 10000001 cycles: 5799565 heartbeat IPC: 1.72361 cumulative IPC: 1.72427 (Simulation time: 0 hr 7 min 26 sec) 

Warmup complete CPU 0 instructions: 10000001 cycles: 5799565 (Simulation time: 0 hr 7 min 26 sec) 

Heartbeat CPU 0 instructions: 11000002 cycles: 6872251 heartbeat IPC: 0.93224 cumulative IPC: 0.93224 (Simulation time: 0 hr 8 min 17 sec) 
Heartbeat CPU 0 instructions: 12000000 cycles: 7928232 heartbeat IPC: 0.946985 cumulative IPC: 0.939555 (Simulation time: 0 hr 9 min 12 sec) 
Heartbeat CPU 0 instructions: 13000001 cycles: 9027308 heartbeat IPC: 0.909856 cumulative IPC: 0.929442 (Simulation time: 0 hr 10 min 0 sec) 
Heartbeat CPU 0 instructions: 14000002 cycles: 10105411 heartbeat IPC: 0.927556 cumulative IPC: 0.92897 (Simulation time: 0 hr 10 min 52 sec) 
Heartbeat CPU 0 instructions: 15000000 cycles: 11191870 heartbeat IPC: 0.920419 cumulative IPC: 0.927247 (Simulation time: 0 hr 11 min 42 sec) 
Heartbeat CPU 0 instructions: 16000000 cycles: 12274934 heartbeat IPC: 0.923306 cumulative IPC: 0.926588 (Simulation time: 0 hr 12 min 33 sec) 
Heartbeat CPU 0 instructions: 17000000 cycles: 13393172 heartbeat IPC: 0.894264 cumulative IPC: 0.921828 (Simulation time: 0 hr 13 min 23 sec) 
Heartbeat CPU 0 instructions: 18000003 cycles: 14458656 heartbeat IPC: 0.938543 cumulative IPC: 0.923885 (Simulation time: 0 hr 14 min 3 sec) 
Heartbeat CPU 0 instructions: 19000001 cycles: 15557149 heartbeat IPC: 0.910336 cumulative IPC: 0.922359 (Simulation time: 0 hr 14 min 43 sec) 
Heartbeat CPU 0 instructions: 20000000 cycles: 16804680 heartbeat IPC: 0.801583 cumulative IPC: 0.908668 (Simulation time: 0 hr 15 min 25 sec) 
Heartbeat CPU 0 instructions: 21000001 cycles: 18079619 heartbeat IPC: 0.784352 cumulative IPC: 0.895762 (Simulation time: 0 hr 16 min 6 sec) 
Heartbeat CPU 0 instructions: 22000001 cycles: 21622999 heartbeat IPC: 0.282216 cumulative IPC: 0.758369 (Simulation time: 0 hr 16 min 51 sec) 
Heartbeat CPU 0 instructions: 23000001 cycles: 22889161 heartbeat IPC: 0.789788 cumulative IPC: 0.760697 (Simulation time: 0 hr 17 min 31 sec) 
Heartbeat CPU 0 instructions: 24000000 cycles: 26608637 heartbeat IPC: 0.268855 cumulative IPC: 0.672783 (Simulation time: 0 hr 18 min 16 sec) 
Heartbeat CPU 0 instructions: 25000003 cycles: 27855818 heartbeat IPC: 0.801811 cumulative IPC: 0.680079 (Simulation time: 0 hr 18 min 59 sec) 
Heartbeat CPU 0 instructions: 26000000 cycles: 31579030 heartbeat IPC: 0.268584 cumulative IPC: 0.620649 (Simulation time: 0 hr 19 min 48 sec) 
Heartbeat CPU 0 instructions: 27000000 cycles: 32793888 heartbeat IPC: 0.823141 cumulative IPC: 0.629762 (Simulation time: 0 hr 20 min 26 sec) 
Heartbeat CPU 0 instructions: 28000000 cycles: 36383850 heartbeat IPC: 0.278554 cumulative IPC: 0.588538 (Simulation time: 0 hr 21 min 7 sec) 
Heartbeat CPU 0 instructions: 29000000 cycles: 37604981 heartbeat IPC: 0.818913 cumulative IPC: 0.597382 (Simulation time: 0 hr 21 min 45 sec) 
Heartbeat CPU 0 instructions: 30000003 cycles: 38971819 heartbeat IPC: 0.731618 cumulative IPC: 0.602914 (Simulation time: 0 hr 22 min 19 sec) 
Heartbeat CPU 0 instructions: 31000002 cycles: 40138233 heartbeat IPC: 0.857328 cumulative IPC: 0.611556 (Simulation time: 0 hr 22 min 58 sec) 
Heartbeat CPU 0 instructions: 32000000 cycles: 41461283 heartbeat IPC: 0.755828 cumulative IPC: 0.616908 (Simulation time: 0 hr 23 min 32 sec) 
Heartbeat CPU 0 instructions: 33000003 cycles: 42624635 heartbeat IPC: 0.859588 cumulative IPC: 0.624575 (Simulation time: 0 hr 24 min 11 sec) 
Heartbeat CPU 0 instructions: 34000002 cycles: 43932455 heartbeat IPC: 0.76463 cumulative IPC: 0.629378 (Simulation time: 0 hr 24 min 46 sec) 
Heartbeat CPU 0 instructions: 35000003 cycles: 45117948 heartbeat IPC: 0.843532 cumulative IPC: 0.635835 (Simulation time: 0 hr 25 min 22 sec) 
Heartbeat CPU 0 instructions: 36000000 cycles: 46473303 heartbeat IPC: 0.737812 cumulative IPC: 0.639233 (Simulation time: 0 hr 26 min 2 sec) 
Heartbeat CPU 0 instructions: 37000000 cycles: 47802799 heartbeat IPC: 0.752165 cumulative IPC: 0.642808 (Simulation time: 0 hr 26 min 49 sec) 
Heartbeat CPU 0 instructions: 38000001 cycles: 49132337 heartbeat IPC: 0.752142 cumulative IPC: 0.646162 (Simulation time: 0 hr 27 min 33 sec) 
Heartbeat CPU 0 instructions: 39000000 cycles: 50461726 heartbeat IPC: 0.752225 cumulative IPC: 0.649319 (Simulation time: 0 hr 28 min 14 sec) 
Heartbeat CPU 0 instructions: 40000000 cycles: 51791266 heartbeat IPC: 0.75214 cumulative IPC: 0.652292 (Simulation time: 0 hr 28 min 58 sec) 
Heartbeat CPU 0 instructions: 41000000 cycles: 53056472 heartbeat IPC: 0.790385 cumulative IPC: 0.655989 (Simulation time: 0 hr 29 min 36 sec) 
Heartbeat CPU 0 instructions: 42000000 cycles: 54385953 heartbeat IPC: 0.752173 cumulative IPC: 0.658621 (Simulation time: 0 hr 30 min 15 sec) 
Heartbeat CPU 0 instructions: 43000002 cycles: 55715622 heartbeat IPC: 0.752068 cumulative IPC: 0.66111 (Simulation time: 0 hr 30 min 55 sec) 
Heartbeat CPU 0 instructions: 44000000 cycles: 57045123 heartbeat IPC: 0.75216 cumulative IPC: 0.663472 (Simulation time: 0 hr 31 min 45 sec) 
Heartbeat CPU 0 instructions: 45000001 cycles: 58374448 heartbeat IPC: 0.752262 cumulative IPC: 0.665717 (Simulation time: 0 hr 32 min 38 sec) 
Heartbeat CPU 0 instructions: 46000003 cycles: 59763254 heartbeat IPC: 0.720044 cumulative IPC: 0.667115 (Simulation time: 0 hr 33 min 42 sec) 
Heartbeat CPU 0 instructions: 47000001 cycles: 60879208 heartbeat IPC: 0.896092 cumulative IPC: 0.671755 (Simulation time: 0 hr 34 min 39 sec) 
Heartbeat CPU 0 instructions: 48000000 cycles: 62246577 heartbeat IPC: 0.731331 cumulative IPC: 0.673198 (Simulation time: 0 hr 35 min 35 sec) 
Heartbeat CPU 0 instructions: 49000003 cycles: 71879284 heartbeat IPC: 0.103813 cumulative IPC: 0.590196 (Simulation time: 0 hr 37 min 31 sec) 
Heartbeat CPU 0 instructions: 50000001 cycles: 73667809 heartbeat IPC: 0.559119 cumulative IPC: 0.589377 (Simulation time: 0 hr 38 min 35 sec) 
Heartbeat CPU 0 instructions: 51000000 cycles: 75321391 heartbeat IPC: 0.604747 cumulative IPC: 0.589743 (Simulation time: 0 hr 39 min 38 sec) 
Heartbeat CPU 0 instructions: 52000000 cycles: 76984435 heartbeat IPC: 0.601307 cumulative IPC: 0.590013 (Simulation time: 0 hr 40 min 44 sec) 
Heartbeat CPU 0 instructions: 53000001 cycles: 78614458 heartbeat IPC: 0.613489 cumulative IPC: 0.590539 (Simulation time: 0 hr 41 min 47 sec) 
Heartbeat CPU 0 instructions: 54000000 cycles: 80264364 heartbeat IPC: 0.606095 cumulative IPC: 0.590883 (Simulation time: 0 hr 43 min 6 sec) 
Heartbeat CPU 0 instructions: 55000000 cycles: 81889244 heartbeat IPC: 0.61543 cumulative IPC: 0.591407 (Simulation time: 0 hr 44 min 18 sec) 
Heartbeat CPU 0 instructions: 56000000 cycles: 83537884 heartbeat IPC: 0.606561 cumulative IPC: 0.591729 (Simulation time: 0 hr 45 min 32 sec) 
Heartbeat CPU 0 instructions: 57000002 cycles: 85208799 heartbeat IPC: 0.598476 cumulative IPC: 0.591871 (Simulation time: 0 hr 46 min 46 sec) 
Heartbeat CPU 0 instructions: 58000002 cycles: 86843147 heartbeat IPC: 0.611865 cumulative IPC: 0.592274 (Simulation time: 0 hr 47 min 52 sec) 
Heartbeat CPU 0 instructions: 59000001 cycles: 88493449 heartbeat IPC: 0.605949 cumulative IPC: 0.592547 (Simulation time: 0 hr 49 min 10 sec) 
Heartbeat CPU 0 instructions: 60000000 cycles: 90152101 heartbeat IPC: 0.602899 cumulative IPC: 0.59275 (Simulation time: 0 hr 50 min 21 sec) 
Heartbeat CPU 0 instructions: 61000000 cycles: 91777596 heartbeat IPC: 0.615197 cumulative IPC: 0.593175 (Simulation time: 0 hr 51 min 25 sec) 
Heartbeat CPU 0 instructions: 62000003 cycles: 93389041 heartbeat IPC: 0.620563 cumulative IPC: 0.593679 (Simulation time: 0 hr 52 min 28 sec) 
Heartbeat CPU 0 instructions: 63000002 cycles: 95027515 heartbeat IPC: 0.610323 cumulative IPC: 0.593984 (Simulation time: 0 hr 53 min 31 sec) 
Heartbeat CPU 0 instructions: 64000000 cycles: 96671510 heartbeat IPC: 0.608273 cumulative IPC: 0.594243 (Simulation time: 0 hr 54 min 41 sec) 
Heartbeat CPU 0 instructions: 65000003 cycles: 98338112 heartbeat IPC: 0.600025 cumulative IPC: 0.594347 (Simulation time: 0 hr 55 min 38 sec) 
Heartbeat CPU 0 instructions: 66000001 cycles: 100006812 heartbeat IPC: 0.599268 cumulative IPC: 0.594434 (Simulation time: 0 hr 56 min 40 sec) 
Heartbeat CPU 0 instructions: 67000001 cycles: 101645089 heartbeat IPC: 0.610397 cumulative IPC: 0.594707 (Simulation time: 0 hr 57 min 48 sec) 
Heartbeat CPU 0 instructions: 68000000 cycles: 103309727 heartbeat IPC: 0.600731 cumulative IPC: 0.59481 (Simulation time: 0 hr 58 min 56 sec) 
Heartbeat CPU 0 instructions: 69000000 cycles: 104962370 heartbeat IPC: 0.605091 cumulative IPC: 0.594981 (Simulation time: 1 hr 0 min 2 sec) 
Heartbeat CPU 0 instructions: 70000003 cycles: 106573125 heartbeat IPC: 0.620829 cumulative IPC: 0.595394 (Simulation time: 1 hr 1 min 2 sec) 
Heartbeat CPU 0 instructions: 71000003 cycles: 108234670 heartbeat IPC: 0.601849 cumulative IPC: 0.595499 (Simulation time: 1 hr 2 min 1 sec) 
Heartbeat CPU 0 instructions: 72000000 cycles: 109865309 heartbeat IPC: 0.613255 cumulative IPC: 0.595777 (Simulation time: 1 hr 2 min 56 sec) 
Heartbeat CPU 0 instructions: 73000001 cycles: 111524318 heartbeat IPC: 0.60277 cumulative IPC: 0.595887 (Simulation time: 1 hr 3 min 49 sec) 
Heartbeat CPU 0 instructions: 74000000 cycles: 113184993 heartbeat IPC: 0.602164 cumulative IPC: 0.595984 (Simulation time: 1 hr 4 min 38 sec) 
Heartbeat CPU 0 instructions: 75000000 cycles: 114848211 heartbeat IPC: 0.601244 cumulative IPC: 0.596064 (Simulation time: 1 hr 5 min 19 sec) 
Heartbeat CPU 0 instructions: 76000000 cycles: 116479711 heartbeat IPC: 0.612933 cumulative IPC: 0.596313 (Simulation time: 1 hr 5 min 57 sec) 
Heartbeat CPU 0 instructions: 77000002 cycles: 118141552 heartbeat IPC: 0.601743 cumulative IPC: 0.596393 (Simulation time: 1 hr 6 min 34 sec) 
Heartbeat CPU 0 instructions: 78000001 cycles: 119777792 heartbeat IPC: 0.611157 cumulative IPC: 0.596605 (Simulation time: 1 hr 7 min 12 sec) 
Heartbeat CPU 0 instructions: 79000002 cycles: 121397750 heartbeat IPC: 0.617301 cumulative IPC: 0.596895 (Simulation time: 1 hr 7 min 49 sec) 
Heartbeat CPU 0 instructions: 80000000 cycles: 123032829 heartbeat IPC: 0.61159 cumulative IPC: 0.5971 (Simulation time: 1 hr 8 min 23 sec) 
Heartbeat CPU 0 instructions: 81000001 cycles: 124681682 heartbeat IPC: 0.606483 cumulative IPC: 0.59723 (Simulation time: 1 hr 8 min 58 sec) 
Heartbeat CPU 0 instructions: 82000000 cycles: 126305895 heartbeat IPC: 0.615682 cumulative IPC: 0.597479 (Simulation time: 1 hr 9 min 33 sec) 
Heartbeat CPU 0 instructions: 83000003 cycles: 127927299 heartbeat IPC: 0.616751 cumulative IPC: 0.597735 (Simulation time: 1 hr 10 min 9 sec) 
Heartbeat CPU 0 instructions: 84000000 cycles: 129561693 heartbeat IPC: 0.611846 cumulative IPC: 0.597921 (Simulation time: 1 hr 10 min 47 sec) 
Heartbeat CPU 0 instructions: 85000001 cycles: 131202003 heartbeat IPC: 0.609641 cumulative IPC: 0.598074 (Simulation time: 1 hr 11 min 21 sec) 
Heartbeat CPU 0 instructions: 86000001 cycles: 132851930 heartbeat IPC: 0.606087 cumulative IPC: 0.598179 (Simulation time: 1 hr 11 min 53 sec) 
Heartbeat CPU 0 instructions: 87000002 cycles: 134490003 heartbeat IPC: 0.610474 cumulative IPC: 0.598335 (Simulation time: 1 hr 12 min 21 sec) 
Heartbeat CPU 0 instructions: 88000000 cycles: 136165098 heartbeat IPC: 0.59698 cumulative IPC: 0.598318 (Simulation time: 1 hr 12 min 47 sec) 
Heartbeat CPU 0 instructions: 89000003 cycles: 137831024 heartbeat IPC: 0.600269 cumulative IPC: 0.598342 (Simulation time: 1 hr 13 min 9 sec) 
Heartbeat CPU 0 instructions: 90000000 cycles: 139510736 heartbeat IPC: 0.595338 cumulative IPC: 0.598305 (Simulation time: 1 hr 13 min 26 sec) 
Heartbeat CPU 0 instructions: 91000002 cycles: 141196888 heartbeat IPC: 0.593068 cumulative IPC: 0.598239 (Simulation time: 1 hr 13 min 45 sec) 
Heartbeat CPU 0 instructions: 92000000 cycles: 142854268 heartbeat IPC: 0.603361 cumulative IPC: 0.598301 (Simulation time: 1 hr 14 min 3 sec) 
Heartbeat CPU 0 instructions: 93000001 cycles: 144503344 heartbeat IPC: 0.606401 cumulative IPC: 0.598398 (Simulation time: 1 hr 14 min 19 sec) 
Heartbeat CPU 0 instructions: 94000000 cycles: 146122689 heartbeat IPC: 0.617533 cumulative IPC: 0.598618 (Simulation time: 1 hr 14 min 33 sec) 
Heartbeat CPU 0 instructions: 95000002 cycles: 147749554 heartbeat IPC: 0.61468 cumulative IPC: 0.598802 (Simulation time: 1 hr 14 min 47 sec) 
Heartbeat CPU 0 instructions: 96000000 cycles: 149399654 heartbeat IPC: 0.606023 cumulative IPC: 0.598885 (Simulation time: 1 hr 15 min 0 sec) 
Heartbeat CPU 0 instructions: 97000002 cycles: 151046804 heartbeat IPC: 0.60711 cumulative IPC: 0.598979 (Simulation time: 1 hr 15 min 11 sec) 
Heartbeat CPU 0 instructions: 98000000 cycles: 152697244 heartbeat IPC: 0.605898 cumulative IPC: 0.599056 (Simulation time: 1 hr 15 min 21 sec) 
Heartbeat CPU 0 instructions: 99000001 cycles: 154329672 heartbeat IPC: 0.612585 cumulative IPC: 0.599205 (Simulation time: 1 hr 15 min 30 sec) 
Heartbeat CPU 0 instructions: 100000000 cycles: 155982712 heartbeat IPC: 0.604945 cumulative IPC: 0.599268 (Simulation time: 1 hr 15 min 39 sec) 
Heartbeat CPU 0 instructions: 101000000 cycles: 157647062 heartbeat IPC: 0.600835 cumulative IPC: 0.599285 (Simulation time: 1 hr 15 min 47 sec) 
Heartbeat CPU 0 instructions: 102000000 cycles: 159291870 heartbeat IPC: 0.607974 cumulative IPC: 0.599379 (Simulation time: 1 hr 15 min 54 sec) 
Heartbeat CPU 0 instructions: 103000001 cycles: 160927762 heartbeat IPC: 0.611288 cumulative IPC: 0.599504 (Simulation time: 1 hr 16 min 1 sec) 
Heartbeat CPU 0 instructions: 104000000 cycles: 162595900 heartbeat IPC: 0.59947 cumulative IPC: 0.599504 (Simulation time: 1 hr 16 min 8 sec) 
Heartbeat CPU 0 instructions: 105000000 cycles: 164259924 heartbeat IPC: 0.600953 cumulative IPC: 0.599519 (Simulation time: 1 hr 16 min 15 sec) 
Heartbeat CPU 0 instructions: 106000001 cycles: 165909995 heartbeat IPC: 0.606035 cumulative IPC: 0.599586 (Simulation time: 1 hr 16 min 21 sec) 
Heartbeat CPU 0 instructions: 107000001 cycles: 167565587 heartbeat IPC: 0.604014 cumulative IPC: 0.599631 (Simulation time: 1 hr 16 min 28 sec) 
Heartbeat CPU 0 instructions: 108000000 cycles: 169231733 heartbeat IPC: 0.600187 cumulative IPC: 0.599637 (Simulation time: 1 hr 16 min 34 sec) 
Heartbeat CPU 0 instructions: 109000003 cycles: 170834139 heartbeat IPC: 0.624063 cumulative IPC: 0.599874 (Simulation time: 1 hr 16 min 40 sec) 
Heartbeat CPU 0 instructions: 110000002 cycles: 172481116 heartbeat IPC: 0.607172 cumulative IPC: 0.599946 (Simulation time: 1 hr 16 min 45 sec) 
Finished CPU 0 instructions: 100000001 cycles: 166681551 cummulative IPC: 0.599946 (Simulation time: 1 hr 16 min 45 sec) 

ChampSim completed all CPUs

Region of Interest Statistics

CPU 0 cummulative IPC: 0.599946 instructions: 100000001 cycles: 166681551
LLC TOTAL     ACCESS:    4812919  HIT:    1581433  MISS:    3231486
LLC LOAD      ACCESS:     462133  HIT:       7700  MISS:     454433
LLC RFO       ACCESS:     126469  HIT:      85775  MISS:      40694
LLC PREFETCH  ACCESS:    2860023  HIT:     123750  MISS:    2736273
LLC WRITEBACK ACCESS:    1364294  HIT:    1364208  MISS:         86
