
*** ChampSim Multicore Out-of-Order Simulator ***

Warmup Instructions: 10000000
Simulation Instructions: 100000000
Configuration: 2
Number of CPUs: 1
LLC sets: 2048
LLC ways: 16
Off-chip DRAM Channels: 1 Width: 64-bit Data Rate: 1600 MT/s

CPU 0 runs /datasets/cs240c-wi22-a00-public/data/Assignment2-gz/lbm_564B.trace.gz
CPU 0 L1D next line prefetcher
CPU 0 L2C IP-based stride prefetcher
Initialize LRU replacement state
Heartbeat CPU 0 instructions: 1000000 cycles: 390168 heartbeat IPC: 2.563 cumulative IPC: 2.563 (Simulation time: 0 hr 0 min 32 sec) 
Heartbeat CPU 0 instructions: 2000003 cycles: 785204 heartbeat IPC: 2.53142 cumulative IPC: 2.54711 (Simulation time: 0 hr 1 min 2 sec) 
Heartbeat CPU 0 instructions: 3000002 cycles: 1175399 heartbeat IPC: 2.56282 cumulative IPC: 2.55233 (Simulation time: 0 hr 1 min 33 sec) 
Heartbeat CPU 0 instructions: 4000000 cycles: 1565583 heartbeat IPC: 2.56289 cumulative IPC: 2.55496 (Simulation time: 0 hr 2 min 6 sec) 
Heartbeat CPU 0 instructions: 5000000 cycles: 1960700 heartbeat IPC: 2.5309 cumulative IPC: 2.55011 (Simulation time: 0 hr 2 min 38 sec) 
Heartbeat CPU 0 instructions: 6000002 cycles: 2350857 heartbeat IPC: 2.56308 cumulative IPC: 2.55226 (Simulation time: 0 hr 3 min 12 sec) 
Heartbeat CPU 0 instructions: 7000001 cycles: 2741118 heartbeat IPC: 2.56239 cumulative IPC: 2.5537 (Simulation time: 0 hr 3 min 48 sec) 
Heartbeat CPU 0 instructions: 8000000 cycles: 3136124 heartbeat IPC: 2.5316 cumulative IPC: 2.55092 (Simulation time: 0 hr 4 min 20 sec) 
Heartbeat CPU 0 instructions: 9000000 cycles: 3526382 heartbeat IPC: 2.56241 cumulative IPC: 2.55219 (Simulation time: 0 hr 4 min 54 sec) 
Heartbeat CPU 0 instructions: 10000002 cycles: 3916532 heartbeat IPC: 2.56312 cumulative IPC: 2.55328 (Simulation time: 0 hr 5 min 27 sec) 

Warmup complete CPU 0 instructions: 10000002 cycles: 3916532 (Simulation time: 0 hr 5 min 27 sec) 

Heartbeat CPU 0 instructions: 11000000 cycles: 5513261 heartbeat IPC: 0.626279 cumulative IPC: 0.626279 (Simulation time: 0 hr 6 min 12 sec) 
Heartbeat CPU 0 instructions: 12000000 cycles: 7176356 heartbeat IPC: 0.601289 cumulative IPC: 0.613529 (Simulation time: 0 hr 6 min 55 sec) 
Heartbeat CPU 0 instructions: 13000001 cycles: 8744823 heartbeat IPC: 0.637566 cumulative IPC: 0.621338 (Simulation time: 0 hr 7 min 37 sec) 
Heartbeat CPU 0 instructions: 14000001 cycles: 10357617 heartbeat IPC: 0.620042 cumulative IPC: 0.621013 (Simulation time: 0 hr 8 min 21 sec) 
Heartbeat CPU 0 instructions: 15000000 cycles: 12034945 heartbeat IPC: 0.596186 cumulative IPC: 0.615884 (Simulation time: 0 hr 9 min 4 sec) 
Heartbeat CPU 0 instructions: 16000000 cycles: 13619724 heartbeat IPC: 0.631003 cumulative IPC: 0.618353 (Simulation time: 0 hr 9 min 45 sec) 
Heartbeat CPU 0 instructions: 17000000 cycles: 15211890 heartbeat IPC: 0.628075 cumulative IPC: 0.619723 (Simulation time: 0 hr 10 min 22 sec) 
Heartbeat CPU 0 instructions: 18000000 cycles: 16852397 heartbeat IPC: 0.609568 cumulative IPC: 0.618436 (Simulation time: 0 hr 10 min 58 sec) 
Heartbeat CPU 0 instructions: 19000003 cycles: 18418334 heartbeat IPC: 0.638597 cumulative IPC: 0.620613 (Simulation time: 0 hr 11 min 31 sec) 
Heartbeat CPU 0 instructions: 20000000 cycles: 20024090 heartbeat IPC: 0.622758 cumulative IPC: 0.620826 (Simulation time: 0 hr 12 min 10 sec) 
Heartbeat CPU 0 instructions: 21000003 cycles: 21626437 heartbeat IPC: 0.624086 cumulative IPC: 0.621121 (Simulation time: 0 hr 12 min 45 sec) 
Heartbeat CPU 0 instructions: 22000003 cycles: 23904696 heartbeat IPC: 0.438932 cumulative IPC: 0.600355 (Simulation time: 0 hr 13 min 24 sec) 
Heartbeat CPU 0 instructions: 23000001 cycles: 26421276 heartbeat IPC: 0.397364 cumulative IPC: 0.577656 (Simulation time: 0 hr 14 min 7 sec) 
Heartbeat CPU 0 instructions: 24000000 cycles: 33826833 heartbeat IPC: 0.135034 cumulative IPC: 0.468066 (Simulation time: 0 hr 15 min 31 sec) 
Heartbeat CPU 0 instructions: 25000003 cycles: 36842577 heartbeat IPC: 0.331594 cumulative IPC: 0.455566 (Simulation time: 0 hr 16 min 17 sec) 
Heartbeat CPU 0 instructions: 26000002 cycles: 39340385 heartbeat IPC: 0.400351 cumulative IPC: 0.451673 (Simulation time: 0 hr 16 min 59 sec) 
Heartbeat CPU 0 instructions: 27000001 cycles: 40934202 heartbeat IPC: 0.627424 cumulative IPC: 0.45924 (Simulation time: 0 hr 17 min 33 sec) 
Heartbeat CPU 0 instructions: 28000000 cycles: 42518881 heartbeat IPC: 0.631042 cumulative IPC: 0.466293 (Simulation time: 0 hr 18 min 8 sec) 
Heartbeat CPU 0 instructions: 29000003 cycles: 44105069 heartbeat IPC: 0.630444 cumulative IPC: 0.472772 (Simulation time: 0 hr 18 min 44 sec) 
Heartbeat CPU 0 instructions: 30000000 cycles: 45753079 heartbeat IPC: 0.606791 cumulative IPC: 0.478051 (Simulation time: 0 hr 19 min 16 sec) 
Heartbeat CPU 0 instructions: 31000000 cycles: 47337175 heartbeat IPC: 0.631275 cumulative IPC: 0.483641 (Simulation time: 0 hr 19 min 49 sec) 
Heartbeat CPU 0 instructions: 32000000 cycles: 48906793 heartbeat IPC: 0.637098 cumulative IPC: 0.488995 (Simulation time: 0 hr 20 min 21 sec) 
Heartbeat CPU 0 instructions: 33000001 cycles: 50563918 heartbeat IPC: 0.603455 cumulative IPC: 0.493061 (Simulation time: 0 hr 20 min 52 sec) 
Heartbeat CPU 0 instructions: 34000001 cycles: 52164222 heartbeat IPC: 0.624881 cumulative IPC: 0.497433 (Simulation time: 0 hr 21 min 27 sec) 
Heartbeat CPU 0 instructions: 35000002 cycles: 53763947 heartbeat IPC: 0.625108 cumulative IPC: 0.501531 (Simulation time: 0 hr 21 min 59 sec) 
Heartbeat CPU 0 instructions: 36000000 cycles: 55330528 heartbeat IPC: 0.638331 cumulative IPC: 0.505699 (Simulation time: 0 hr 22 min 31 sec) 
Heartbeat CPU 0 instructions: 37000000 cycles: 57008295 heartbeat IPC: 0.59603 cumulative IPC: 0.508553 (Simulation time: 0 hr 23 min 5 sec) 
Heartbeat CPU 0 instructions: 38000003 cycles: 58612572 heartbeat IPC: 0.623336 cumulative IPC: 0.51192 (Simulation time: 0 hr 23 min 41 sec) 
Heartbeat CPU 0 instructions: 39000002 cycles: 60204530 heartbeat IPC: 0.628157 cumulative IPC: 0.515208 (Simulation time: 0 hr 24 min 13 sec) 
Heartbeat CPU 0 instructions: 40000000 cycles: 61880418 heartbeat IPC: 0.596697 cumulative IPC: 0.517564 (Simulation time: 0 hr 24 min 44 sec) 
Heartbeat CPU 0 instructions: 41000000 cycles: 63455228 heartbeat IPC: 0.634997 cumulative IPC: 0.52067 (Simulation time: 0 hr 25 min 18 sec) 
Heartbeat CPU 0 instructions: 42000002 cycles: 65050670 heartbeat IPC: 0.626787 cumulative IPC: 0.523439 (Simulation time: 0 hr 25 min 52 sec) 
Heartbeat CPU 0 instructions: 43000001 cycles: 66694270 heartbeat IPC: 0.60842 cumulative IPC: 0.525664 (Simulation time: 0 hr 26 min 28 sec) 
Heartbeat CPU 0 instructions: 44000000 cycles: 68284414 heartbeat IPC: 0.628873 cumulative IPC: 0.528214 (Simulation time: 0 hr 27 min 0 sec) 
Heartbeat CPU 0 instructions: 45000001 cycles: 69888847 heartbeat IPC: 0.623274 cumulative IPC: 0.530526 (Simulation time: 0 hr 27 min 32 sec) 
Heartbeat CPU 0 instructions: 46000002 cycles: 71481101 heartbeat IPC: 0.628041 cumulative IPC: 0.532824 (Simulation time: 0 hr 28 min 5 sec) 
Heartbeat CPU 0 instructions: 47000001 cycles: 73121920 heartbeat IPC: 0.609451 cumulative IPC: 0.53464 (Simulation time: 0 hr 28 min 36 sec) 
Heartbeat CPU 0 instructions: 48000000 cycles: 74721297 heartbeat IPC: 0.625243 cumulative IPC: 0.536687 (Simulation time: 0 hr 29 min 10 sec) 
Heartbeat CPU 0 instructions: 49000001 cycles: 76317431 heartbeat IPC: 0.626514 cumulative IPC: 0.538667 (Simulation time: 0 hr 29 min 42 sec) 
Heartbeat CPU 0 instructions: 50000001 cycles: 77972389 heartbeat IPC: 0.604245 cumulative IPC: 0.540133 (Simulation time: 0 hr 30 min 16 sec) 
Heartbeat CPU 0 instructions: 51000002 cycles: 79558810 heartbeat IPC: 0.63035 cumulative IPC: 0.542025 (Simulation time: 0 hr 30 min 48 sec) 
Heartbeat CPU 0 instructions: 52000000 cycles: 81153215 heartbeat IPC: 0.627192 cumulative IPC: 0.543783 (Simulation time: 0 hr 31 min 17 sec) 
Heartbeat CPU 0 instructions: 53000001 cycles: 82764866 heartbeat IPC: 0.620482 cumulative IPC: 0.545351 (Simulation time: 0 hr 31 min 54 sec) 
Heartbeat CPU 0 instructions: 54000001 cycles: 84405750 heartbeat IPC: 0.609428 cumulative IPC: 0.546657 (Simulation time: 0 hr 32 min 32 sec) 
Heartbeat CPU 0 instructions: 55000003 cycles: 86019995 heartbeat IPC: 0.619486 cumulative IPC: 0.548089 (Simulation time: 0 hr 33 min 5 sec) 
Heartbeat CPU 0 instructions: 56000000 cycles: 87622982 heartbeat IPC: 0.623833 cumulative IPC: 0.549539 (Simulation time: 0 hr 33 min 38 sec) 
Heartbeat CPU 0 instructions: 57000001 cycles: 89264204 heartbeat IPC: 0.609303 cumulative IPC: 0.550689 (Simulation time: 0 hr 34 min 17 sec) 
Heartbeat CPU 0 instructions: 58000002 cycles: 90927766 heartbeat IPC: 0.60112 cumulative IPC: 0.551653 (Simulation time: 0 hr 34 min 54 sec) 
Heartbeat CPU 0 instructions: 59000001 cycles: 92521975 heartbeat IPC: 0.62727 cumulative IPC: 0.553013 (Simulation time: 0 hr 35 min 33 sec) 
Heartbeat CPU 0 instructions: 60000000 cycles: 94180091 heartbeat IPC: 0.603094 cumulative IPC: 0.553933 (Simulation time: 0 hr 36 min 9 sec) 
Heartbeat CPU 0 instructions: 61000003 cycles: 95858871 heartbeat IPC: 0.595672 cumulative IPC: 0.554695 (Simulation time: 0 hr 36 min 46 sec) 
Heartbeat CPU 0 instructions: 62000003 cycles: 97452323 heartbeat IPC: 0.627568 cumulative IPC: 0.555937 (Simulation time: 0 hr 37 min 22 sec) 
Heartbeat CPU 0 instructions: 63000000 cycles: 99129044 heartbeat IPC: 0.5964 cumulative IPC: 0.55665 (Simulation time: 0 hr 37 min 58 sec) 
Heartbeat CPU 0 instructions: 64000000 cycles: 100818973 heartbeat IPC: 0.591741 cumulative IPC: 0.557261 (Simulation time: 0 hr 38 min 35 sec) 
Heartbeat CPU 0 instructions: 65000003 cycles: 102452776 heartbeat IPC: 0.612071 cumulative IPC: 0.55817 (Simulation time: 0 hr 39 min 12 sec) 
Heartbeat CPU 0 instructions: 66000001 cycles: 104044811 heartbeat IPC: 0.628126 cumulative IPC: 0.559283 (Simulation time: 0 hr 39 min 49 sec) 
Heartbeat CPU 0 instructions: 67000001 cycles: 105733247 heartbeat IPC: 0.592264 cumulative IPC: 0.559829 (Simulation time: 0 hr 40 min 29 sec) 
Heartbeat CPU 0 instructions: 68000000 cycles: 107453635 heartbeat IPC: 0.581264 cumulative IPC: 0.560186 (Simulation time: 0 hr 41 min 8 sec) 
Heartbeat CPU 0 instructions: 69000003 cycles: 109034747 heartbeat IPC: 0.632468 cumulative IPC: 0.561273 (Simulation time: 0 hr 41 min 44 sec) 
Heartbeat CPU 0 instructions: 70000003 cycles: 110707856 heartbeat IPC: 0.59769 cumulative IPC: 0.561843 (Simulation time: 0 hr 42 min 20 sec) 
Heartbeat CPU 0 instructions: 71000000 cycles: 112500083 heartbeat IPC: 0.557963 cumulative IPC: 0.561779 (Simulation time: 0 hr 43 min 0 sec) 
Heartbeat CPU 0 instructions: 72000000 cycles: 114108735 heartbeat IPC: 0.621638 cumulative IPC: 0.562653 (Simulation time: 0 hr 43 min 44 sec) 
Heartbeat CPU 0 instructions: 73000003 cycles: 115758044 heartbeat IPC: 0.606316 cumulative IPC: 0.563297 (Simulation time: 0 hr 44 min 29 sec) 
Heartbeat CPU 0 instructions: 74000002 cycles: 117570074 heartbeat IPC: 0.551867 cumulative IPC: 0.563115 (Simulation time: 0 hr 45 min 13 sec) 
Heartbeat CPU 0 instructions: 75000002 cycles: 119168241 heartbeat IPC: 0.625717 cumulative IPC: 0.563983 (Simulation time: 0 hr 45 min 54 sec) 
Heartbeat CPU 0 instructions: 76000000 cycles: 120836089 heartbeat IPC: 0.599574 cumulative IPC: 0.564491 (Simulation time: 0 hr 46 min 29 sec) 
Heartbeat CPU 0 instructions: 77000001 cycles: 122674223 heartbeat IPC: 0.544031 cumulative IPC: 0.564174 (Simulation time: 0 hr 47 min 10 sec) 
Heartbeat CPU 0 instructions: 78000002 cycles: 124286901 heartbeat IPC: 0.620087 cumulative IPC: 0.564923 (Simulation time: 0 hr 47 min 47 sec) 
Heartbeat CPU 0 instructions: 79000000 cycles: 125933634 heartbeat IPC: 0.607262 cumulative IPC: 0.565494 (Simulation time: 0 hr 48 min 25 sec) 
Heartbeat CPU 0 instructions: 80000000 cycles: 127783304 heartbeat IPC: 0.540637 cumulative IPC: 0.565123 (Simulation time: 0 hr 49 min 5 sec) 
Heartbeat CPU 0 instructions: 81000003 cycles: 129426575 heartbeat IPC: 0.608544 cumulative IPC: 0.565692 (Simulation time: 0 hr 49 min 42 sec) 
Heartbeat CPU 0 instructions: 82000001 cycles: 131085248 heartbeat IPC: 0.60289 cumulative IPC: 0.566177 (Simulation time: 0 hr 50 min 22 sec) 
Heartbeat CPU 0 instructions: 83000001 cycles: 132904272 heartbeat IPC: 0.549745 cumulative IPC: 0.565945 (Simulation time: 0 hr 50 min 58 sec) 
Heartbeat CPU 0 instructions: 84000000 cycles: 134590336 heartbeat IPC: 0.593097 cumulative IPC: 0.566296 (Simulation time: 0 hr 51 min 33 sec) 
Heartbeat CPU 0 instructions: 85000002 cycles: 136184008 heartbeat IPC: 0.627483 cumulative IPC: 0.567033 (Simulation time: 0 hr 52 min 9 sec) 
Heartbeat CPU 0 instructions: 86000001 cycles: 138046294 heartbeat IPC: 0.536974 cumulative IPC: 0.566615 (Simulation time: 0 hr 52 min 46 sec) 
Heartbeat CPU 0 instructions: 87000003 cycles: 139774187 heartbeat IPC: 0.578741 cumulative IPC: 0.56677 (Simulation time: 0 hr 53 min 21 sec) 
Heartbeat CPU 0 instructions: 88000000 cycles: 141353817 heartbeat IPC: 0.633058 cumulative IPC: 0.567532 (Simulation time: 0 hr 53 min 56 sec) 
Heartbeat CPU 0 instructions: 89000003 cycles: 143192684 heartbeat IPC: 0.543815 cumulative IPC: 0.567218 (Simulation time: 0 hr 54 min 33 sec) 
Heartbeat CPU 0 instructions: 90000001 cycles: 144947788 heartbeat IPC: 0.569766 cumulative IPC: 0.56725 (Simulation time: 0 hr 55 min 7 sec) 
Heartbeat CPU 0 instructions: 91000000 cycles: 146539604 heartbeat IPC: 0.628213 cumulative IPC: 0.567931 (Simulation time: 0 hr 55 min 40 sec) 
Heartbeat CPU 0 instructions: 92000000 cycles: 148383033 heartbeat IPC: 0.542467 cumulative IPC: 0.567606 (Simulation time: 0 hr 56 min 16 sec) 
Heartbeat CPU 0 instructions: 93000003 cycles: 150171111 heartbeat IPC: 0.559261 cumulative IPC: 0.567504 (Simulation time: 0 hr 56 min 51 sec) 
Heartbeat CPU 0 instructions: 94000002 cycles: 151753946 heartbeat IPC: 0.631777 cumulative IPC: 0.568192 (Simulation time: 0 hr 57 min 21 sec) 
Heartbeat CPU 0 instructions: 95000001 cycles: 153583050 heartbeat IPC: 0.546715 cumulative IPC: 0.567929 (Simulation time: 0 hr 57 min 55 sec) 
Heartbeat CPU 0 instructions: 96000000 cycles: 155383950 heartbeat IPC: 0.555277 cumulative IPC: 0.567779 (Simulation time: 0 hr 58 min 29 sec) 
Heartbeat CPU 0 instructions: 97000002 cycles: 156974988 heartbeat IPC: 0.628522 cumulative IPC: 0.56841 (Simulation time: 0 hr 59 min 0 sec) 
Heartbeat CPU 0 instructions: 98000000 cycles: 158830682 heartbeat IPC: 0.538881 cumulative IPC: 0.568057 (Simulation time: 0 hr 59 min 33 sec) 
Heartbeat CPU 0 instructions: 99000001 cycles: 160615157 heartbeat IPC: 0.560389 cumulative IPC: 0.567969 (Simulation time: 1 hr 0 min 7 sec) 
Heartbeat CPU 0 instructions: 100000000 cycles: 162197546 heartbeat IPC: 0.631955 cumulative IPC: 0.568609 (Simulation time: 1 hr 0 min 40 sec) 
Heartbeat CPU 0 instructions: 101000002 cycles: 164106089 heartbeat IPC: 0.523961 cumulative IPC: 0.568077 (Simulation time: 1 hr 1 min 13 sec) 
Heartbeat CPU 0 instructions: 102000002 cycles: 165898820 heartbeat IPC: 0.557808 cumulative IPC: 0.567963 (Simulation time: 1 hr 1 min 44 sec) 
Heartbeat CPU 0 instructions: 103000001 cycles: 167509288 heartbeat IPC: 0.620937 cumulative IPC: 0.568485 (Simulation time: 1 hr 2 min 13 sec) 
Heartbeat CPU 0 instructions: 104000000 cycles: 169396787 heartbeat IPC: 0.529801 cumulative IPC: 0.568044 (Simulation time: 1 hr 2 min 43 sec) 
Heartbeat CPU 0 instructions: 105000001 cycles: 171187939 heartbeat IPC: 0.5583 cumulative IPC: 0.567939 (Simulation time: 1 hr 3 min 12 sec) 
Heartbeat CPU 0 instructions: 106000003 cycles: 172783754 heartbeat IPC: 0.62664 cumulative IPC: 0.568494 (Simulation time: 1 hr 3 min 40 sec) 
Heartbeat CPU 0 instructions: 107000001 cycles: 174710704 heartbeat IPC: 0.518954 cumulative IPC: 0.567935 (Simulation time: 1 hr 4 min 10 sec) 
Heartbeat CPU 0 instructions: 108000000 cycles: 176486752 heartbeat IPC: 0.563047 cumulative IPC: 0.567885 (Simulation time: 1 hr 4 min 35 sec) 
Heartbeat CPU 0 instructions: 109000003 cycles: 178070614 heartbeat IPC: 0.63137 cumulative IPC: 0.568462 (Simulation time: 1 hr 5 min 0 sec) 
Heartbeat CPU 0 instructions: 110000001 cycles: 180034941 heartbeat IPC: 0.509079 cumulative IPC: 0.5678 (Simulation time: 1 hr 5 min 28 sec) 
Finished CPU 0 instructions: 100000003 cycles: 176118410 cummulative IPC: 0.5678 (Simulation time: 1 hr 5 min 28 sec) 

ChampSim completed all CPUs

Region of Interest Statistics

CPU 0 cummulative IPC: 0.5678 instructions: 100000003 cycles: 176118410
LLC TOTAL     ACCESS:    6081286  HIT:    2707216  MISS:    3374070
LLC LOAD      ACCESS:     452222  HIT:      24718  MISS:     427504
LLC RFO       ACCESS:    2591720  HIT:      61222  MISS:    2530498
LLC PREFETCH  ACCESS:     445394  HIT:      29454  MISS:     415940
LLC WRITEBACK ACCESS:    2591950  HIT:    2591822  MISS:        128
