
*** ChampSim Multicore Out-of-Order Simulator ***

Warmup Instructions: 10000000
Simulation Instructions: 100000000
Configuration: 2
Number of CPUs: 1
LLC sets: 2048
LLC ways: 16
Off-chip DRAM Channels: 1 Width: 64-bit Data Rate: 1600 MT/s

CPU 0 runs /datasets/cs240c-wi22-a00-public/data/Assignment2-gz/leslie3d_1116B.trace.gz
CPU 0 L1D next line prefetcher
CPU 0 L2C IP-based stride prefetcher
Initialize LRU replacement state
Heartbeat CPU 0 instructions: 1000003 cycles: 535311 heartbeat IPC: 1.86808 cumulative IPC: 1.86808 (Simulation time: 0 hr 0 min 43 sec) 
Heartbeat CPU 0 instructions: 2000003 cycles: 1071193 heartbeat IPC: 1.86608 cumulative IPC: 1.86708 (Simulation time: 0 hr 1 min 21 sec) 
Heartbeat CPU 0 instructions: 3000003 cycles: 1607887 heartbeat IPC: 1.86326 cumulative IPC: 1.8658 (Simulation time: 0 hr 1 min 56 sec) 
Heartbeat CPU 0 instructions: 4000000 cycles: 2143237 heartbeat IPC: 1.86793 cumulative IPC: 1.86634 (Simulation time: 0 hr 2 min 33 sec) 
Heartbeat CPU 0 instructions: 5000001 cycles: 2678304 heartbeat IPC: 1.86893 cumulative IPC: 1.86685 (Simulation time: 0 hr 3 min 12 sec) 
Heartbeat CPU 0 instructions: 6000001 cycles: 3213688 heartbeat IPC: 1.86782 cumulative IPC: 1.86701 (Simulation time: 0 hr 3 min 49 sec) 
Heartbeat CPU 0 instructions: 7000001 cycles: 3749657 heartbeat IPC: 1.86578 cumulative IPC: 1.86684 (Simulation time: 0 hr 4 min 31 sec) 
Heartbeat CPU 0 instructions: 8000000 cycles: 4285655 heartbeat IPC: 1.86568 cumulative IPC: 1.86669 (Simulation time: 0 hr 5 min 15 sec) 
Heartbeat CPU 0 instructions: 9000003 cycles: 4820710 heartbeat IPC: 1.86897 cumulative IPC: 1.86695 (Simulation time: 0 hr 5 min 55 sec) 
Heartbeat CPU 0 instructions: 10000002 cycles: 5355658 heartbeat IPC: 1.86934 cumulative IPC: 1.86718 (Simulation time: 0 hr 6 min 37 sec) 

Warmup complete CPU 0 instructions: 10000002 cycles: 5355658 (Simulation time: 0 hr 6 min 37 sec) 

Heartbeat CPU 0 instructions: 11000001 cycles: 6473091 heartbeat IPC: 0.894907 cumulative IPC: 0.894907 (Simulation time: 0 hr 7 min 20 sec) 
Heartbeat CPU 0 instructions: 12000000 cycles: 7561997 heartbeat IPC: 0.918352 cumulative IPC: 0.906478 (Simulation time: 0 hr 8 min 4 sec) 
Heartbeat CPU 0 instructions: 13000002 cycles: 8658645 heartbeat IPC: 0.911871 cumulative IPC: 0.908269 (Simulation time: 0 hr 8 min 47 sec) 
Heartbeat CPU 0 instructions: 14000003 cycles: 9749647 heartbeat IPC: 0.916589 cumulative IPC: 0.910335 (Simulation time: 0 hr 9 min 32 sec) 
Heartbeat CPU 0 instructions: 15000000 cycles: 10855542 heartbeat IPC: 0.904242 cumulative IPC: 0.90911 (Simulation time: 0 hr 10 min 16 sec) 
Heartbeat CPU 0 instructions: 16000000 cycles: 11962063 heartbeat IPC: 0.903733 cumulative IPC: 0.908209 (Simulation time: 0 hr 10 min 57 sec) 
Heartbeat CPU 0 instructions: 17000003 cycles: 13055685 heartbeat IPC: 0.914395 cumulative IPC: 0.909088 (Simulation time: 0 hr 11 min 37 sec) 
Heartbeat CPU 0 instructions: 18000001 cycles: 14165069 heartbeat IPC: 0.901399 cumulative IPC: 0.90812 (Simulation time: 0 hr 12 min 19 sec) 
Heartbeat CPU 0 instructions: 19000001 cycles: 15273101 heartbeat IPC: 0.902501 cumulative IPC: 0.907492 (Simulation time: 0 hr 12 min 58 sec) 
Heartbeat CPU 0 instructions: 20000000 cycles: 16360862 heartbeat IPC: 0.919319 cumulative IPC: 0.908661 (Simulation time: 0 hr 13 min 42 sec) 
Heartbeat CPU 0 instructions: 21000000 cycles: 17471122 heartbeat IPC: 0.90069 cumulative IPC: 0.90793 (Simulation time: 0 hr 14 min 26 sec) 
Heartbeat CPU 0 instructions: 22000000 cycles: 18579813 heartbeat IPC: 0.901965 cumulative IPC: 0.90743 (Simulation time: 0 hr 15 min 13 sec) 
Heartbeat CPU 0 instructions: 23000003 cycles: 19682278 heartbeat IPC: 0.907061 cumulative IPC: 0.907402 (Simulation time: 0 hr 15 min 48 sec) 
Heartbeat CPU 0 instructions: 24000000 cycles: 20776249 heartbeat IPC: 0.914098 cumulative IPC: 0.907877 (Simulation time: 0 hr 16 min 26 sec) 
Heartbeat CPU 0 instructions: 25000001 cycles: 21867169 heartbeat IPC: 0.916658 cumulative IPC: 0.908457 (Simulation time: 0 hr 17 min 0 sec) 
Heartbeat CPU 0 instructions: 26000002 cycles: 22986087 heartbeat IPC: 0.893721 cumulative IPC: 0.907522 (Simulation time: 0 hr 17 min 34 sec) 
Heartbeat CPU 0 instructions: 27000001 cycles: 24093925 heartbeat IPC: 0.902658 cumulative IPC: 0.907234 (Simulation time: 0 hr 18 min 13 sec) 
Heartbeat CPU 0 instructions: 28000000 cycles: 25187621 heartbeat IPC: 0.91433 cumulative IPC: 0.907626 (Simulation time: 0 hr 18 min 50 sec) 
Heartbeat CPU 0 instructions: 29000003 cycles: 26291837 heartbeat IPC: 0.905623 cumulative IPC: 0.90752 (Simulation time: 0 hr 19 min 39 sec) 
Heartbeat CPU 0 instructions: 30000002 cycles: 27422940 heartbeat IPC: 0.884092 cumulative IPC: 0.906319 (Simulation time: 0 hr 20 min 25 sec) 
Heartbeat CPU 0 instructions: 31000001 cycles: 28525263 heartbeat IPC: 0.907174 cumulative IPC: 0.90636 (Simulation time: 0 hr 20 min 59 sec) 
Heartbeat CPU 0 instructions: 32000000 cycles: 29638028 heartbeat IPC: 0.898661 cumulative IPC: 0.906007 (Simulation time: 0 hr 21 min 35 sec) 
Heartbeat CPU 0 instructions: 33000002 cycles: 30749358 heartbeat IPC: 0.899825 cumulative IPC: 0.905736 (Simulation time: 0 hr 22 min 15 sec) 
Heartbeat CPU 0 instructions: 34000002 cycles: 31864777 heartbeat IPC: 0.896524 cumulative IPC: 0.905349 (Simulation time: 0 hr 22 min 57 sec) 
Heartbeat CPU 0 instructions: 35000000 cycles: 32982870 heartbeat IPC: 0.894378 cumulative IPC: 0.904905 (Simulation time: 0 hr 23 min 34 sec) 
Heartbeat CPU 0 instructions: 36000000 cycles: 34088880 heartbeat IPC: 0.904151 cumulative IPC: 0.904876 (Simulation time: 0 hr 24 min 10 sec) 
Heartbeat CPU 0 instructions: 37000003 cycles: 35407382 heartbeat IPC: 0.758439 cumulative IPC: 0.898451 (Simulation time: 0 hr 24 min 47 sec) 
Heartbeat CPU 0 instructions: 38000003 cycles: 37009248 heartbeat IPC: 0.624272 cumulative IPC: 0.884576 (Simulation time: 0 hr 25 min 23 sec) 
Heartbeat CPU 0 instructions: 39000003 cycles: 38590766 heartbeat IPC: 0.632304 cumulative IPC: 0.872571 (Simulation time: 0 hr 26 min 0 sec) 
Heartbeat CPU 0 instructions: 40000000 cycles: 40176227 heartbeat IPC: 0.630729 cumulative IPC: 0.86156 (Simulation time: 0 hr 26 min 42 sec) 
Heartbeat CPU 0 instructions: 41000002 cycles: 41731321 heartbeat IPC: 0.643049 cumulative IPC: 0.852218 (Simulation time: 0 hr 27 min 16 sec) 
Heartbeat CPU 0 instructions: 42000001 cycles: 43296015 heartbeat IPC: 0.639102 cumulative IPC: 0.843429 (Simulation time: 0 hr 27 min 50 sec) 
Heartbeat CPU 0 instructions: 43000003 cycles: 44855928 heartbeat IPC: 0.641063 cumulative IPC: 0.835437 (Simulation time: 0 hr 28 min 25 sec) 
Heartbeat CPU 0 instructions: 44000000 cycles: 46414435 heartbeat IPC: 0.641638 cumulative IPC: 0.828081 (Simulation time: 0 hr 29 min 5 sec) 
Heartbeat CPU 0 instructions: 45000002 cycles: 47959856 heartbeat IPC: 0.647074 cumulative IPC: 0.821515 (Simulation time: 0 hr 29 min 40 sec) 
Heartbeat CPU 0 instructions: 46000002 cycles: 49519288 heartbeat IPC: 0.641259 cumulative IPC: 0.81515 (Simulation time: 0 hr 30 min 17 sec) 
Heartbeat CPU 0 instructions: 47000001 cycles: 51093638 heartbeat IPC: 0.635182 cumulative IPC: 0.808956 (Simulation time: 0 hr 30 min 57 sec) 
Heartbeat CPU 0 instructions: 48000000 cycles: 52664840 heartbeat IPC: 0.636455 cumulative IPC: 0.803227 (Simulation time: 0 hr 31 min 37 sec) 
Heartbeat CPU 0 instructions: 49000002 cycles: 54791890 heartbeat IPC: 0.470136 cumulative IPC: 0.788895 (Simulation time: 0 hr 32 min 28 sec) 
Heartbeat CPU 0 instructions: 50000000 cycles: 57207113 heartbeat IPC: 0.41404 cumulative IPC: 0.771434 (Simulation time: 0 hr 33 min 10 sec) 
Heartbeat CPU 0 instructions: 51000003 cycles: 59604474 heartbeat IPC: 0.417127 cumulative IPC: 0.755777 (Simulation time: 0 hr 34 min 3 sec) 
Heartbeat CPU 0 instructions: 52000000 cycles: 62016152 heartbeat IPC: 0.414648 cumulative IPC: 0.741257 (Simulation time: 0 hr 34 min 57 sec) 
Heartbeat CPU 0 instructions: 53000003 cycles: 64448301 heartbeat IPC: 0.41116 cumulative IPC: 0.727671 (Simulation time: 0 hr 35 min 50 sec) 
Heartbeat CPU 0 instructions: 54000000 cycles: 66870042 heartbeat IPC: 0.412925 cumulative IPC: 0.71528 (Simulation time: 0 hr 36 min 48 sec) 
Heartbeat CPU 0 instructions: 55000002 cycles: 69217872 heartbeat IPC: 0.425926 cumulative IPC: 0.704642 (Simulation time: 0 hr 37 min 46 sec) 
Heartbeat CPU 0 instructions: 56000000 cycles: 71587304 heartbeat IPC: 0.422041 cumulative IPC: 0.694532 (Simulation time: 0 hr 38 min 46 sec) 
Heartbeat CPU 0 instructions: 57000001 cycles: 73928354 heartbeat IPC: 0.427159 cumulative IPC: 0.685404 (Simulation time: 0 hr 39 min 45 sec) 
Heartbeat CPU 0 instructions: 58000001 cycles: 76180817 heartbeat IPC: 0.443958 cumulative IPC: 0.677725 (Simulation time: 0 hr 40 min 43 sec) 
Heartbeat CPU 0 instructions: 59000000 cycles: 77482920 heartbeat IPC: 0.767988 cumulative IPC: 0.679355 (Simulation time: 0 hr 41 min 32 sec) 
Heartbeat CPU 0 instructions: 60000000 cycles: 78786247 heartbeat IPC: 0.767267 cumulative IPC: 0.680915 (Simulation time: 0 hr 42 min 19 sec) 
Heartbeat CPU 0 instructions: 61000003 cycles: 80130821 heartbeat IPC: 0.743732 cumulative IPC: 0.682045 (Simulation time: 0 hr 43 min 4 sec) 
Heartbeat CPU 0 instructions: 62000002 cycles: 81439297 heartbeat IPC: 0.764247 cumulative IPC: 0.683458 (Simulation time: 0 hr 43 min 52 sec) 
Heartbeat CPU 0 instructions: 63000003 cycles: 82794498 heartbeat IPC: 0.737899 cumulative IPC: 0.684411 (Simulation time: 0 hr 44 min 40 sec) 
Heartbeat CPU 0 instructions: 64000000 cycles: 84115787 heartbeat IPC: 0.756834 cumulative IPC: 0.685626 (Simulation time: 0 hr 45 min 29 sec) 
Heartbeat CPU 0 instructions: 65000001 cycles: 85511707 heartbeat IPC: 0.716374 cumulative IPC: 0.686162 (Simulation time: 0 hr 46 min 13 sec) 
Heartbeat CPU 0 instructions: 66000000 cycles: 86826671 heartbeat IPC: 0.760476 cumulative IPC: 0.687361 (Simulation time: 0 hr 47 min 2 sec) 
Heartbeat CPU 0 instructions: 67000001 cycles: 88145989 heartbeat IPC: 0.757968 cumulative IPC: 0.688486 (Simulation time: 0 hr 47 min 52 sec) 
Heartbeat CPU 0 instructions: 68000000 cycles: 89548009 heartbeat IPC: 0.713256 cumulative IPC: 0.688899 (Simulation time: 0 hr 48 min 39 sec) 
Heartbeat CPU 0 instructions: 69000002 cycles: 90842932 heartbeat IPC: 0.772248 cumulative IPC: 0.690161 (Simulation time: 0 hr 49 min 27 sec) 
Heartbeat CPU 0 instructions: 70000000 cycles: 92185067 heartbeat IPC: 0.74508 cumulative IPC: 0.69101 (Simulation time: 0 hr 50 min 19 sec) 
Heartbeat CPU 0 instructions: 71000002 cycles: 93490835 heartbeat IPC: 0.765834 cumulative IPC: 0.692119 (Simulation time: 0 hr 51 min 8 sec) 
Heartbeat CPU 0 instructions: 72000000 cycles: 94859601 heartbeat IPC: 0.730584 cumulative IPC: 0.692707 (Simulation time: 0 hr 51 min 54 sec) 
Heartbeat CPU 0 instructions: 73000000 cycles: 96201202 heartbeat IPC: 0.745378 cumulative IPC: 0.693485 (Simulation time: 0 hr 52 min 43 sec) 
Heartbeat CPU 0 instructions: 74000000 cycles: 97508316 heartbeat IPC: 0.765044 cumulative IPC: 0.6945 (Simulation time: 0 hr 53 min 27 sec) 
Heartbeat CPU 0 instructions: 75000002 cycles: 98914082 heartbeat IPC: 0.711357 cumulative IPC: 0.694753 (Simulation time: 0 hr 54 min 7 sec) 
Heartbeat CPU 0 instructions: 76000000 cycles: 100209350 heartbeat IPC: 0.772039 cumulative IPC: 0.695808 (Simulation time: 0 hr 54 min 54 sec) 
Heartbeat CPU 0 instructions: 77000001 cycles: 101512164 heartbeat IPC: 0.76757 cumulative IPC: 0.696781 (Simulation time: 0 hr 55 min 40 sec) 
Heartbeat CPU 0 instructions: 78000000 cycles: 102861625 heartbeat IPC: 0.741036 cumulative IPC: 0.697393 (Simulation time: 0 hr 56 min 25 sec) 
Heartbeat CPU 0 instructions: 79000001 cycles: 104165540 heartbeat IPC: 0.766922 cumulative IPC: 0.698311 (Simulation time: 0 hr 57 min 10 sec) 
Heartbeat CPU 0 instructions: 80000000 cycles: 105512971 heartbeat IPC: 0.742152 cumulative IPC: 0.698901 (Simulation time: 0 hr 57 min 55 sec) 
Heartbeat CPU 0 instructions: 81000003 cycles: 106791915 heartbeat IPC: 0.781897 cumulative IPC: 0.699947 (Simulation time: 0 hr 58 min 43 sec) 
Heartbeat CPU 0 instructions: 82000000 cycles: 108169271 heartbeat IPC: 0.726027 cumulative IPC: 0.700296 (Simulation time: 0 hr 59 min 28 sec) 
Heartbeat CPU 0 instructions: 83000001 cycles: 109483101 heartbeat IPC: 0.761134 cumulative IPC: 0.701064 (Simulation time: 1 hr 0 min 16 sec) 
Heartbeat CPU 0 instructions: 84000000 cycles: 110789915 heartbeat IPC: 0.765219 cumulative IPC: 0.701859 (Simulation time: 1 hr 1 min 0 sec) 
Heartbeat CPU 0 instructions: 85000003 cycles: 112206205 heartbeat IPC: 0.706072 cumulative IPC: 0.701915 (Simulation time: 1 hr 1 min 38 sec) 
Heartbeat CPU 0 instructions: 86000002 cycles: 113476799 heartbeat IPC: 0.787033 cumulative IPC: 0.702915 (Simulation time: 1 hr 2 min 17 sec) 
Heartbeat CPU 0 instructions: 87000001 cycles: 114788832 heartbeat IPC: 0.762175 cumulative IPC: 0.703626 (Simulation time: 1 hr 2 min 52 sec) 
Heartbeat CPU 0 instructions: 88000000 cycles: 116087791 heartbeat IPC: 0.769846 cumulative IPC: 0.704403 (Simulation time: 1 hr 3 min 26 sec) 
Heartbeat CPU 0 instructions: 89000001 cycles: 117446941 heartbeat IPC: 0.735755 cumulative IPC: 0.704783 (Simulation time: 1 hr 3 min 58 sec) 
Heartbeat CPU 0 instructions: 90000003 cycles: 118782350 heartbeat IPC: 0.748836 cumulative IPC: 0.705301 (Simulation time: 1 hr 4 min 33 sec) 
Heartbeat CPU 0 instructions: 91000000 cycles: 120086997 heartbeat IPC: 0.766489 cumulative IPC: 0.705997 (Simulation time: 1 hr 5 min 4 sec) 
Heartbeat CPU 0 instructions: 92000000 cycles: 121496341 heartbeat IPC: 0.70955 cumulative IPC: 0.70604 (Simulation time: 1 hr 5 min 33 sec) 
Heartbeat CPU 0 instructions: 93000002 cycles: 122791308 heartbeat IPC: 0.772222 cumulative IPC: 0.70677 (Simulation time: 1 hr 6 min 2 sec) 
Heartbeat CPU 0 instructions: 94000000 cycles: 124103306 heartbeat IPC: 0.762195 cumulative IPC: 0.707382 (Simulation time: 1 hr 6 min 29 sec) 
Heartbeat CPU 0 instructions: 95000003 cycles: 125484458 heartbeat IPC: 0.724035 cumulative IPC: 0.707574 (Simulation time: 1 hr 6 min 55 sec) 
Heartbeat CPU 0 instructions: 96000000 cycles: 126799018 heartbeat IPC: 0.760709 cumulative IPC: 0.708149 (Simulation time: 1 hr 7 min 21 sec) 
Heartbeat CPU 0 instructions: 97000000 cycles: 128112788 heartbeat IPC: 0.761168 cumulative IPC: 0.708716 (Simulation time: 1 hr 7 min 49 sec) 
Heartbeat CPU 0 instructions: 98000000 cycles: 129404433 heartbeat IPC: 0.774207 cumulative IPC: 0.709398 (Simulation time: 1 hr 8 min 15 sec) 
Heartbeat CPU 0 instructions: 99000003 cycles: 130810672 heartbeat IPC: 0.711119 cumulative IPC: 0.709418 (Simulation time: 1 hr 8 min 39 sec) 
Heartbeat CPU 0 instructions: 100000000 cycles: 132140328 heartbeat IPC: 0.752072 cumulative IPC: 0.709865 (Simulation time: 1 hr 9 min 5 sec) 
Heartbeat CPU 0 instructions: 101000001 cycles: 133461882 heartbeat IPC: 0.756686 cumulative IPC: 0.710348 (Simulation time: 1 hr 9 min 31 sec) 
Heartbeat CPU 0 instructions: 102000003 cycles: 134865816 heartbeat IPC: 0.712286 cumulative IPC: 0.710369 (Simulation time: 1 hr 9 min 54 sec) 
Heartbeat CPU 0 instructions: 103000002 cycles: 136144712 heartbeat IPC: 0.781924 cumulative IPC: 0.711069 (Simulation time: 1 hr 10 min 20 sec) 
Heartbeat CPU 0 instructions: 104000000 cycles: 137489816 heartbeat IPC: 0.743435 cumulative IPC: 0.711398 (Simulation time: 1 hr 10 min 45 sec) 
Heartbeat CPU 0 instructions: 105000000 cycles: 138801548 heartbeat IPC: 0.762351 cumulative IPC: 0.711899 (Simulation time: 1 hr 11 min 8 sec) 
Heartbeat CPU 0 instructions: 106000003 cycles: 140419122 heartbeat IPC: 0.618212 cumulative IPC: 0.710777 (Simulation time: 1 hr 11 min 29 sec) 
Heartbeat CPU 0 instructions: 107000002 cycles: 142036476 heartbeat IPC: 0.618293 cumulative IPC: 0.709683 (Simulation time: 1 hr 11 min 49 sec) 
Heartbeat CPU 0 instructions: 108000000 cycles: 143706625 heartbeat IPC: 0.598748 cumulative IPC: 0.708343 (Simulation time: 1 hr 12 min 9 sec) 
Heartbeat CPU 0 instructions: 109000003 cycles: 145274592 heartbeat IPC: 0.63777 cumulative IPC: 0.707553 (Simulation time: 1 hr 12 min 30 sec) 
Heartbeat CPU 0 instructions: 110000003 cycles: 146936190 heartbeat IPC: 0.60183 cumulative IPC: 0.706312 (Simulation time: 1 hr 12 min 48 sec) 
Finished CPU 0 instructions: 100000001 cycles: 141580532 cummulative IPC: 0.706312 (Simulation time: 1 hr 12 min 48 sec) 

ChampSim completed all CPUs

Region of Interest Statistics

CPU 0 cummulative IPC: 0.706312 instructions: 100000001 cycles: 141580532
LLC TOTAL     ACCESS:    3583439  HIT:    1008961  MISS:    2574478
LLC LOAD      ACCESS:     297443  HIT:      42304  MISS:     255139
LLC RFO       ACCESS:     622457  HIT:      48175  MISS:     574282
LLC PREFETCH  ACCESS:    1900366  HIT:     159293  MISS:    1741073
LLC WRITEBACK ACCESS:     763173  HIT:     759189  MISS:       3984
