
*** ChampSim Multicore Out-of-Order Simulator ***

Warmup Instructions: 10000000
Simulation Instructions: 100000000
Configuration: 2
Number of CPUs: 1
LLC sets: 2048
LLC ways: 16
Off-chip DRAM Channels: 1 Width: 64-bit Data Rate: 1600 MT/s

CPU 0 runs /datasets/cs240c-wi22-a00-public/data/Assignment2-gz/cactusADM_1039B.trace.gz
CPU 0 L1D next line prefetcher
CPU 0 L2C IP-based stride prefetcher
Initialize LRU replacement state
Heartbeat CPU 0 instructions: 1000000 cycles: 595518 heartbeat IPC: 1.67921 cumulative IPC: 1.67921 (Simulation time: 0 hr 0 min 43 sec) 
Heartbeat CPU 0 instructions: 2000002 cycles: 1190937 heartbeat IPC: 1.67949 cumulative IPC: 1.67935 (Simulation time: 0 hr 1 min 22 sec) 
Heartbeat CPU 0 instructions: 3000003 cycles: 1786622 heartbeat IPC: 1.67874 cumulative IPC: 1.67915 (Simulation time: 0 hr 2 min 2 sec) 
Heartbeat CPU 0 instructions: 4000000 cycles: 2382046 heartbeat IPC: 1.67947 cumulative IPC: 1.67923 (Simulation time: 0 hr 2 min 44 sec) 
Heartbeat CPU 0 instructions: 5000001 cycles: 2977457 heartbeat IPC: 1.67951 cumulative IPC: 1.67929 (Simulation time: 0 hr 3 min 26 sec) 
Heartbeat CPU 0 instructions: 6000002 cycles: 3572930 heartbeat IPC: 1.67934 cumulative IPC: 1.67929 (Simulation time: 0 hr 4 min 12 sec) 
Heartbeat CPU 0 instructions: 7000000 cycles: 4168306 heartbeat IPC: 1.67961 cumulative IPC: 1.67934 (Simulation time: 0 hr 5 min 1 sec) 
Heartbeat CPU 0 instructions: 8000000 cycles: 4763681 heartbeat IPC: 1.67961 cumulative IPC: 1.67937 (Simulation time: 0 hr 5 min 53 sec) 
Heartbeat CPU 0 instructions: 9000002 cycles: 5359336 heartbeat IPC: 1.67883 cumulative IPC: 1.67931 (Simulation time: 0 hr 6 min 38 sec) 
Heartbeat CPU 0 instructions: 10000003 cycles: 5974113 heartbeat IPC: 1.62661 cumulative IPC: 1.67389 (Simulation time: 0 hr 7 min 27 sec) 

Warmup complete CPU 0 instructions: 10000003 cycles: 5974113 (Simulation time: 0 hr 7 min 27 sec) 

Heartbeat CPU 0 instructions: 11000003 cycles: 12128945 heartbeat IPC: 0.162474 cumulative IPC: 0.162474 (Simulation time: 0 hr 8 min 30 sec) 
Heartbeat CPU 0 instructions: 12000000 cycles: 13871916 heartbeat IPC: 0.573731 cumulative IPC: 0.253235 (Simulation time: 0 hr 9 min 15 sec) 
Heartbeat CPU 0 instructions: 13000002 cycles: 15540875 heartbeat IPC: 0.599177 cumulative IPC: 0.313586 (Simulation time: 0 hr 10 min 3 sec) 
Heartbeat CPU 0 instructions: 14000001 cycles: 17248857 heartbeat IPC: 0.585486 cumulative IPC: 0.354775 (Simulation time: 0 hr 10 min 51 sec) 
Heartbeat CPU 0 instructions: 15000002 cycles: 18993173 heartbeat IPC: 0.573291 cumulative IPC: 0.384052 (Simulation time: 0 hr 11 min 42 sec) 
Heartbeat CPU 0 instructions: 16000000 cycles: 20739930 heartbeat IPC: 0.572488 cumulative IPC: 0.406344 (Simulation time: 0 hr 12 min 29 sec) 
Heartbeat CPU 0 instructions: 17000003 cycles: 22464613 heartbeat IPC: 0.579818 cumulative IPC: 0.424487 (Simulation time: 0 hr 13 min 10 sec) 
Heartbeat CPU 0 instructions: 18000002 cycles: 24119074 heartbeat IPC: 0.604426 cumulative IPC: 0.440894 (Simulation time: 0 hr 13 min 52 sec) 
Heartbeat CPU 0 instructions: 19000003 cycles: 25855956 heartbeat IPC: 0.575745 cumulative IPC: 0.452674 (Simulation time: 0 hr 14 min 36 sec) 
Heartbeat CPU 0 instructions: 20000000 cycles: 27599758 heartbeat IPC: 0.573458 cumulative IPC: 0.462414 (Simulation time: 0 hr 15 min 14 sec) 
Heartbeat CPU 0 instructions: 21000002 cycles: 29343405 heartbeat IPC: 0.573512 cumulative IPC: 0.470703 (Simulation time: 0 hr 15 min 55 sec) 
Heartbeat CPU 0 instructions: 22000003 cycles: 31034652 heartbeat IPC: 0.59128 cumulative IPC: 0.47884 (Simulation time: 0 hr 16 min 38 sec) 
Heartbeat CPU 0 instructions: 23000001 cycles: 32719871 heartbeat IPC: 0.593394 cumulative IPC: 0.486058 (Simulation time: 0 hr 17 min 23 sec) 
Heartbeat CPU 0 instructions: 24000000 cycles: 39450946 heartbeat IPC: 0.148565 cumulative IPC: 0.4182 (Simulation time: 0 hr 18 min 18 sec) 
Heartbeat CPU 0 instructions: 25000002 cycles: 41192742 heartbeat IPC: 0.574121 cumulative IPC: 0.425911 (Simulation time: 0 hr 19 min 1 sec) 
Heartbeat CPU 0 instructions: 26000002 cycles: 42921358 heartbeat IPC: 0.578497 cumulative IPC: 0.43305 (Simulation time: 0 hr 19 min 42 sec) 
Heartbeat CPU 0 instructions: 27000002 cycles: 44590150 heartbeat IPC: 0.599236 cumulative IPC: 0.440232 (Simulation time: 0 hr 20 min 28 sec) 
Heartbeat CPU 0 instructions: 28000000 cycles: 46324811 heartbeat IPC: 0.57648 cumulative IPC: 0.446089 (Simulation time: 0 hr 21 min 7 sec) 
Heartbeat CPU 0 instructions: 29000000 cycles: 48068141 heartbeat IPC: 0.573615 cumulative IPC: 0.45137 (Simulation time: 0 hr 21 min 54 sec) 
Heartbeat CPU 0 instructions: 30000003 cycles: 49809593 heartbeat IPC: 0.574235 cumulative IPC: 0.456251 (Simulation time: 0 hr 22 min 44 sec) 
Heartbeat CPU 0 instructions: 31000001 cycles: 51508418 heartbeat IPC: 0.588641 cumulative IPC: 0.461191 (Simulation time: 0 hr 23 min 28 sec) 
Heartbeat CPU 0 instructions: 32000000 cycles: 53186585 heartbeat IPC: 0.595888 cumulative IPC: 0.465979 (Simulation time: 0 hr 24 min 15 sec) 
Heartbeat CPU 0 instructions: 33000001 cycles: 54927315 heartbeat IPC: 0.574472 cumulative IPC: 0.469836 (Simulation time: 0 hr 25 min 7 sec) 
Heartbeat CPU 0 instructions: 34000000 cycles: 56669594 heartbeat IPC: 0.57396 cumulative IPC: 0.473415 (Simulation time: 0 hr 25 min 56 sec) 
Heartbeat CPU 0 instructions: 35000001 cycles: 58407207 heartbeat IPC: 0.575503 cumulative IPC: 0.476798 (Simulation time: 0 hr 26 min 37 sec) 
Heartbeat CPU 0 instructions: 36000000 cycles: 60072844 heartbeat IPC: 0.60037 cumulative IPC: 0.480603 (Simulation time: 0 hr 27 min 20 sec) 
Heartbeat CPU 0 instructions: 37000002 cycles: 66728920 heartbeat IPC: 0.150239 cumulative IPC: 0.444409 (Simulation time: 0 hr 28 min 8 sec) 
Heartbeat CPU 0 instructions: 38000001 cycles: 68473386 heartbeat IPC: 0.573241 cumulative IPC: 0.448005 (Simulation time: 0 hr 28 min 49 sec) 
Heartbeat CPU 0 instructions: 39000002 cycles: 70219391 heartbeat IPC: 0.572737 cumulative IPC: 0.451395 (Simulation time: 0 hr 29 min 34 sec) 
Heartbeat CPU 0 instructions: 40000000 cycles: 71921457 heartbeat IPC: 0.58752 cumulative IPC: 0.454908 (Simulation time: 0 hr 30 min 22 sec) 
Heartbeat CPU 0 instructions: 41000003 cycles: 73596377 heartbeat IPC: 0.597045 cumulative IPC: 0.458429 (Simulation time: 0 hr 31 min 9 sec) 
Heartbeat CPU 0 instructions: 42000000 cycles: 75336902 heartbeat IPC: 0.574538 cumulative IPC: 0.461342 (Simulation time: 0 hr 32 min 3 sec) 
Heartbeat CPU 0 instructions: 43000000 cycles: 77082494 heartbeat IPC: 0.572872 cumulative IPC: 0.46408 (Simulation time: 0 hr 32 min 58 sec) 
Heartbeat CPU 0 instructions: 44000000 cycles: 78823276 heartbeat IPC: 0.574454 cumulative IPC: 0.466718 (Simulation time: 0 hr 33 min 46 sec) 
Heartbeat CPU 0 instructions: 45000000 cycles: 80495167 heartbeat IPC: 0.598125 cumulative IPC: 0.469666 (Simulation time: 0 hr 34 min 39 sec) 
Heartbeat CPU 0 instructions: 46000003 cycles: 82202902 heartbeat IPC: 0.585573 cumulative IPC: 0.472263 (Simulation time: 0 hr 35 min 42 sec) 
Heartbeat CPU 0 instructions: 47000001 cycles: 83946243 heartbeat IPC: 0.57361 cumulative IPC: 0.474528 (Simulation time: 0 hr 36 min 56 sec) 
Heartbeat CPU 0 instructions: 48000000 cycles: 85689688 heartbeat IPC: 0.573576 cumulative IPC: 0.476695 (Simulation time: 0 hr 38 min 8 sec) 
Heartbeat CPU 0 instructions: 49000001 cycles: 87416721 heartbeat IPC: 0.579028 cumulative IPC: 0.478865 (Simulation time: 0 hr 39 min 16 sec) 
Heartbeat CPU 0 instructions: 50000000 cycles: 94125807 heartbeat IPC: 0.149051 cumulative IPC: 0.453763 (Simulation time: 0 hr 40 min 40 sec) 
Heartbeat CPU 0 instructions: 51000003 cycles: 95893825 heartbeat IPC: 0.565607 cumulative IPC: 0.455962 (Simulation time: 0 hr 41 min 47 sec) 
Heartbeat CPU 0 instructions: 52000000 cycles: 97670086 heartbeat IPC: 0.562979 cumulative IPC: 0.458035 (Simulation time: 0 hr 42 min 52 sec) 
Heartbeat CPU 0 instructions: 53000003 cycles: 99445576 heartbeat IPC: 0.563226 cumulative IPC: 0.460033 (Simulation time: 0 hr 43 min 59 sec) 
Heartbeat CPU 0 instructions: 54000002 cycles: 101165043 heartbeat IPC: 0.581575 cumulative IPC: 0.462229 (Simulation time: 0 hr 45 min 10 sec) 
Heartbeat CPU 0 instructions: 55000001 cycles: 102894745 heartbeat IPC: 0.578134 cumulative IPC: 0.464297 (Simulation time: 0 hr 46 min 17 sec) 
Heartbeat CPU 0 instructions: 56000000 cycles: 104669351 heartbeat IPC: 0.563505 cumulative IPC: 0.466081 (Simulation time: 0 hr 47 min 29 sec) 
Heartbeat CPU 0 instructions: 57000000 cycles: 106446771 heartbeat IPC: 0.562613 cumulative IPC: 0.467789 (Simulation time: 0 hr 48 min 31 sec) 
Heartbeat CPU 0 instructions: 58000000 cycles: 108214941 heartbeat IPC: 0.565556 cumulative IPC: 0.46948 (Simulation time: 0 hr 49 min 22 sec) 
Heartbeat CPU 0 instructions: 59000002 cycles: 109904909 heartbeat IPC: 0.591728 cumulative IPC: 0.471468 (Simulation time: 0 hr 50 min 8 sec) 
Heartbeat CPU 0 instructions: 60000000 cycles: 111668077 heartbeat IPC: 0.56716 cumulative IPC: 0.473064 (Simulation time: 0 hr 50 min 56 sec) 
Heartbeat CPU 0 instructions: 61000001 cycles: 113446615 heartbeat IPC: 0.56226 cumulative IPC: 0.47454 (Simulation time: 0 hr 51 min 43 sec) 
Heartbeat CPU 0 instructions: 62000000 cycles: 115222488 heartbeat IPC: 0.563103 cumulative IPC: 0.47598 (Simulation time: 0 hr 52 min 29 sec) 
Heartbeat CPU 0 instructions: 63000001 cycles: 121484621 heartbeat IPC: 0.15969 cumulative IPC: 0.458833 (Simulation time: 0 hr 53 min 25 sec) 
Heartbeat CPU 0 instructions: 64000000 cycles: 123764730 heartbeat IPC: 0.438575 cumulative IPC: 0.458441 (Simulation time: 0 hr 54 min 9 sec) 
Heartbeat CPU 0 instructions: 65000002 cycles: 125539327 heartbeat IPC: 0.563509 cumulative IPC: 0.46 (Simulation time: 0 hr 54 min 51 sec) 
Heartbeat CPU 0 instructions: 66000001 cycles: 127314580 heartbeat IPC: 0.563299 cumulative IPC: 0.461511 (Simulation time: 0 hr 55 min 32 sec) 
Heartbeat CPU 0 instructions: 67000003 cycles: 129084276 heartbeat IPC: 0.56507 cumulative IPC: 0.463 (Simulation time: 0 hr 56 min 13 sec) 
Heartbeat CPU 0 instructions: 68000000 cycles: 130814392 heartbeat IPC: 0.577994 cumulative IPC: 0.464594 (Simulation time: 0 hr 56 min 52 sec) 
Heartbeat CPU 0 instructions: 69000003 cycles: 132595387 heartbeat IPC: 0.561486 cumulative IPC: 0.465956 (Simulation time: 0 hr 57 min 33 sec) 
Heartbeat CPU 0 instructions: 70000002 cycles: 134370027 heartbeat IPC: 0.563494 cumulative IPC: 0.467305 (Simulation time: 0 hr 58 min 13 sec) 
Heartbeat CPU 0 instructions: 71000000 cycles: 136145989 heartbeat IPC: 0.563074 cumulative IPC: 0.468611 (Simulation time: 0 hr 58 min 59 sec) 
Heartbeat CPU 0 instructions: 72000000 cycles: 137895522 heartbeat IPC: 0.571581 cumulative IPC: 0.469977 (Simulation time: 0 hr 59 min 43 sec) 
Heartbeat CPU 0 instructions: 73000001 cycles: 139598770 heartbeat IPC: 0.587114 cumulative IPC: 0.47147 (Simulation time: 1 hr 0 min 25 sec) 
Heartbeat CPU 0 instructions: 74000003 cycles: 141370193 heartbeat IPC: 0.564519 cumulative IPC: 0.472687 (Simulation time: 1 hr 1 min 2 sec) 
Heartbeat CPU 0 instructions: 75000002 cycles: 143146999 heartbeat IPC: 0.562807 cumulative IPC: 0.473855 (Simulation time: 1 hr 1 min 40 sec) 
Heartbeat CPU 0 instructions: 76000000 cycles: 148451032 heartbeat IPC: 0.188535 cumulative IPC: 0.463233 (Simulation time: 1 hr 2 min 22 sec) 
Heartbeat CPU 0 instructions: 77000001 cycles: 151650332 heartbeat IPC: 0.312569 cumulative IPC: 0.459924 (Simulation time: 1 hr 3 min 0 sec) 
Heartbeat CPU 0 instructions: 78000000 cycles: 153403364 heartbeat IPC: 0.57044 cumulative IPC: 0.461238 (Simulation time: 1 hr 3 min 32 sec) 
Heartbeat CPU 0 instructions: 79000002 cycles: 155177433 heartbeat IPC: 0.563677 cumulative IPC: 0.462456 (Simulation time: 1 hr 4 min 4 sec) 
Heartbeat CPU 0 instructions: 80000000 cycles: 156951604 heartbeat IPC: 0.563642 cumulative IPC: 0.463645 (Simulation time: 1 hr 4 min 34 sec) 
Heartbeat CPU 0 instructions: 81000002 cycles: 158703936 heartbeat IPC: 0.570669 cumulative IPC: 0.464873 (Simulation time: 1 hr 5 min 2 sec) 
Heartbeat CPU 0 instructions: 82000002 cycles: 160402289 heartbeat IPC: 0.588806 cumulative IPC: 0.466236 (Simulation time: 1 hr 5 min 30 sec) 
Heartbeat CPU 0 instructions: 83000003 cycles: 162171766 heartbeat IPC: 0.565139 cumulative IPC: 0.467357 (Simulation time: 1 hr 5 min 56 sec) 
Heartbeat CPU 0 instructions: 84000000 cycles: 163945576 heartbeat IPC: 0.563757 cumulative IPC: 0.468439 (Simulation time: 1 hr 6 min 23 sec) 
Heartbeat CPU 0 instructions: 85000002 cycles: 165719426 heartbeat IPC: 0.563747 cumulative IPC: 0.469497 (Simulation time: 1 hr 6 min 49 sec) 
Heartbeat CPU 0 instructions: 86000003 cycles: 167437558 heartbeat IPC: 0.582028 cumulative IPC: 0.470695 (Simulation time: 1 hr 7 min 17 sec) 
Heartbeat CPU 0 instructions: 87000000 cycles: 169182993 heartbeat IPC: 0.572921 cumulative IPC: 0.471788 (Simulation time: 1 hr 7 min 44 sec) 
Heartbeat CPU 0 instructions: 88000000 cycles: 170955286 heartbeat IPC: 0.564241 cumulative IPC: 0.472781 (Simulation time: 1 hr 8 min 10 sec) 
Heartbeat CPU 0 instructions: 89000001 cycles: 175321383 heartbeat IPC: 0.229038 cumulative IPC: 0.466497 (Simulation time: 1 hr 8 min 38 sec) 
Heartbeat CPU 0 instructions: 90000002 cycles: 179486305 heartbeat IPC: 0.240101 cumulative IPC: 0.461063 (Simulation time: 1 hr 9 min 5 sec) 
Heartbeat CPU 0 instructions: 91000000 cycles: 181184628 heartbeat IPC: 0.588815 cumulative IPC: 0.462301 (Simulation time: 1 hr 9 min 31 sec) 
Heartbeat CPU 0 instructions: 92000000 cycles: 182953227 heartbeat IPC: 0.565419 cumulative IPC: 0.463331 (Simulation time: 1 hr 9 min 56 sec) 
Heartbeat CPU 0 instructions: 93000001 cycles: 184728069 heartbeat IPC: 0.563431 cumulative IPC: 0.464325 (Simulation time: 1 hr 10 min 21 sec) 
Heartbeat CPU 0 instructions: 94000003 cycles: 186506868 heartbeat IPC: 0.562178 cumulative IPC: 0.46529 (Simulation time: 1 hr 10 min 45 sec) 
Heartbeat CPU 0 instructions: 95000001 cycles: 188231292 heartbeat IPC: 0.579903 cumulative IPC: 0.466374 (Simulation time: 1 hr 11 min 8 sec) 
Heartbeat CPU 0 instructions: 96000000 cycles: 189955561 heartbeat IPC: 0.579955 cumulative IPC: 0.467438 (Simulation time: 1 hr 11 min 29 sec) 
Heartbeat CPU 0 instructions: 97000002 cycles: 191727805 heartbeat IPC: 0.564258 cumulative IPC: 0.468362 (Simulation time: 1 hr 11 min 50 sec) 
Heartbeat CPU 0 instructions: 98000000 cycles: 193503916 heartbeat IPC: 0.563027 cumulative IPC: 0.469259 (Simulation time: 1 hr 12 min 10 sec) 
Heartbeat CPU 0 instructions: 99000002 cycles: 195275128 heartbeat IPC: 0.564586 cumulative IPC: 0.470151 (Simulation time: 1 hr 12 min 30 sec) 
Heartbeat CPU 0 instructions: 100000000 cycles: 196969946 heartbeat IPC: 0.590033 cumulative IPC: 0.471214 (Simulation time: 1 hr 12 min 48 sec) 
Heartbeat CPU 0 instructions: 101000002 cycles: 198727811 heartbeat IPC: 0.568873 cumulative IPC: 0.472105 (Simulation time: 1 hr 13 min 4 sec) 
Heartbeat CPU 0 instructions: 102000000 cycles: 202094538 heartbeat IPC: 0.297024 cumulative IPC: 0.4691 (Simulation time: 1 hr 13 min 20 sec) 
Heartbeat CPU 0 instructions: 103000002 cycles: 207260366 heartbeat IPC: 0.19358 cumulative IPC: 0.462029 (Simulation time: 1 hr 13 min 36 sec) 
Heartbeat CPU 0 instructions: 104000000 cycles: 208991107 heartbeat IPC: 0.577786 cumulative IPC: 0.463015 (Simulation time: 1 hr 13 min 51 sec) 
Heartbeat CPU 0 instructions: 105000002 cycles: 210710385 heartbeat IPC: 0.581641 cumulative IPC: 0.464012 (Simulation time: 1 hr 14 min 6 sec) 
Heartbeat CPU 0 instructions: 106000001 cycles: 212486005 heartbeat IPC: 0.563183 cumulative IPC: 0.464864 (Simulation time: 1 hr 14 min 20 sec) 
Heartbeat CPU 0 instructions: 107000003 cycles: 214260254 heartbeat IPC: 0.56362 cumulative IPC: 0.465705 (Simulation time: 1 hr 14 min 32 sec) 
Heartbeat CPU 0 instructions: 108000000 cycles: 216032905 heartbeat IPC: 0.564125 cumulative IPC: 0.466536 (Simulation time: 1 hr 14 min 45 sec) 
Heartbeat CPU 0 instructions: 109000003 cycles: 217734143 heartbeat IPC: 0.587809 cumulative IPC: 0.46751 (Simulation time: 1 hr 14 min 56 sec) 
Heartbeat CPU 0 instructions: 110000002 cycles: 219486715 heartbeat IPC: 0.570589 cumulative IPC: 0.468356 (Simulation time: 1 hr 15 min 6 sec) 
Finished CPU 0 instructions: 100000003 cycles: 213512603 cummulative IPC: 0.468356 (Simulation time: 1 hr 15 min 6 sec) 

ChampSim completed all CPUs

Region of Interest Statistics

CPU 0 cummulative IPC: 0.468356 instructions: 100000003 cycles: 213512603
LLC TOTAL     ACCESS:    1174483  HIT:     278470  MISS:     896013
LLC LOAD      ACCESS:      31203  HIT:       2714  MISS:      28489
LLC RFO       ACCESS:     265309  HIT:        685  MISS:     264624
LLC PREFETCH  ACCESS:     610627  HIT:       8058  MISS:     602569
LLC WRITEBACK ACCESS:     267344  HIT:     267013  MISS:        331
