Initialize SIGNATURE TABLE
ST_SET: 1
ST_WAY: 256
ST_TAG_BIT: 16
ST_TAG_MASK: ffff

Initialize PATTERN TABLE
PT_SET: 512
PT_WAY: 4
SIG_DELTA_BIT: 7
C_SIG_BIT: 4
C_DELTA_BIT: 4

Initialize PREFETCH FILTER
FILTER_SET: 1024

*** ChampSim Multicore Out-of-Order Simulator ***

Warmup Instructions: 50000000
Simulation Instructions: 50000000
Number of CPUs: 1
LLC sets: 2048
LLC ways: 16
Off-chip DRAM Size: 4096 MB Channels: 1 Width: 64-bit Data Rate: 3200 MT/s

CPU 0 runs /Users/gandhardeshpande/Desktop/CSE240C/HW1/ChampSim/ipc1_public/server_026.champsimtrace.xz
CPU 0 L1I next line prefetcher
Running FNL-MMA for L1I
CPU 0 L1D next line prefetcher
Heartbeat CPU 0 instructions: 10000000 cycles: 3525374 heartbeat IPC: 2.83658 cumulative IPC: 2.83658 (Simulation time: 0 hr 0 min 15 sec) 
Heartbeat CPU 0 instructions: 20000002 cycles: 7055607 heartbeat IPC: 2.83267 cumulative IPC: 2.83463 (Simulation time: 0 hr 0 min 30 sec) 
Heartbeat CPU 0 instructions: 30000000 cycles: 10575939 heartbeat IPC: 2.84064 cumulative IPC: 2.83663 (Simulation time: 0 hr 0 min 45 sec) 
Heartbeat CPU 0 instructions: 40000003 cycles: 14104596 heartbeat IPC: 2.83394 cumulative IPC: 2.83596 (Simulation time: 0 hr 0 min 59 sec) 
Heartbeat CPU 0 instructions: 50000000 cycles: 17626952 heartbeat IPC: 2.83901 cumulative IPC: 2.83657 (Simulation time: 0 hr 1 min 14 sec) 

Warmup complete CPU 0 instructions: 50000004 cycles: 17626953 (Simulation time: 0 hr 1 min 14 sec) 

*** Reached end of trace for Core: 0 Repeating trace: /Users/gandhardeshpande/Desktop/CSE240C/HW1/ChampSim/ipc1_public/server_026.champsimtrace.xz
Heartbeat CPU 0 instructions: 60000000 cycles: 24528414 heartbeat IPC: 1.44897 cumulative IPC: 1.44897 (Simulation time: 0 hr 1 min 29 sec) 
Heartbeat CPU 0 instructions: 70000003 cycles: 31305262 heartbeat IPC: 1.47561 cumulative IPC: 1.46217 (Simulation time: 0 hr 1 min 45 sec) 
Heartbeat CPU 0 instructions: 80000002 cycles: 38187017 heartbeat IPC: 1.45312 cumulative IPC: 1.45914 (Simulation time: 0 hr 2 min 0 sec) 
Heartbeat CPU 0 instructions: 90000002 cycles: 44970525 heartbeat IPC: 1.47416 cumulative IPC: 1.46287 (Simulation time: 0 hr 2 min 15 sec) 
Heartbeat CPU 0 instructions: 100000000 cycles: 51844080 heartbeat IPC: 1.45485 cumulative IPC: 1.46126 (Simulation time: 0 hr 2 min 31 sec) 
Finished CPU 0 instructions: 50000000 cycles: 34217128 cumulative IPC: 1.46126 (Simulation time: 0 hr 2 min 31 sec) 

ChampSim completed all CPUs

Region of Interest Statistics

CPU 0 cumulative IPC: 1.46126 instructions: 50000000 cycles: 34217128
L1D TOTAL     ACCESS:   19780715  HIT:   18135706  MISS:    1645009
L1D LOAD      ACCESS:    6934876  HIT:    6205011  MISS:     729865
L1D RFO       ACCESS:    6245596  HIT:    5959110  MISS:     286486
L1D PREFETCH  ACCESS:    6600243  HIT:    5971585  MISS:     628658
L1D WRITEBACK ACCESS:          0  HIT:          0  MISS:          0
L1D PREFETCH  REQUESTED:    6982812  ISSUED:    6839196  USEFUL:     151116  USELESS:     477552
L1D AVERAGE MISS LATENCY: 23.9785 cycles
L1I TOTAL     ACCESS:   14559232  HIT:   10799965  MISS:    3759267
L1I LOAD      ACCESS:    9486296  HIT:    9394451  MISS:      91845
L1I RFO       ACCESS:          0  HIT:          0  MISS:          0
L1I PREFETCH  ACCESS:    5072936  HIT:    1405514  MISS:    3667422
L1I WRITEBACK ACCESS:          0  HIT:          0  MISS:          0
L1I PREFETCH  REQUESTED:    5284346  ISSUED:    5283240  USEFUL:    2760973  USELESS:     906473
L1I AVERAGE MISS LATENCY: 18.6157 cycles
L2C TOTAL     ACCESS:    7245555  HIT:    6404429  MISS:     841126
L2C LOAD      ACCESS:     717743  HIT:     572096  MISS:     145647
L2C RFO       ACCESS:     284771  HIT:     192342  MISS:      92429
L2C PREFETCH  ACCESS:    5681871  HIT:    5082503  MISS:     599368
L2C WRITEBACK ACCESS:     561170  HIT:     557488  MISS:       3682
L2C PREFETCH  REQUESTED:    7270355  ISSUED:    7252131  USEFUL:      14264  USELESS:     584751
L2C AVERAGE MISS LATENCY: 39.3026 cycles
LLC TOTAL     ACCESS:    2809905  HIT:    2771990  MISS:      37915
LLC LOAD      ACCESS:     145374  HIT:     141670  MISS:       3704
LLC RFO       ACCESS:      92345  HIT:      77709  MISS:      14636
LLC PREFETCH  ACCESS:    2415150  HIT:    2395860  MISS:      19290
LLC WRITEBACK ACCESS:     157036  HIT:     156751  MISS:        285
LLC PREFETCH  REQUESTED:          0  ISSUED:          0  USEFUL:       1178  USELESS:      18037
LLC AVERAGE MISS LATENCY: 186.056 cycles
Major fault: 0 Minor fault: 2165
I-Shadow cache 408 bytes
Touched + WorthPF tables 98304 bytes 
MMA filter 174 bytes 
FNL filter 272 bytes 
TOTAL PREFETCHER STORAGE SIZE: 389974 bytes
CPU 0 L1I next line prefetcher final stats
CPU 0 L1D next line prefetcher final stats

DRAM Statistics
 CHANNEL 0
 RQ ROW_BUFFER_HIT:      13299  ROW_BUFFER_MISS:      24317
 DBUS_CONGESTED:      25213
 WQ ROW_BUFFER_HIT:       1711  ROW_BUFFER_MISS:      14478  FULL:          0

 AVG_CONGESTED_CYCLE: 6

CPU 0 Branch Prediction Accuracy: 99.822% MPKI: 0.32584 Average ROB Occupancy at Mispredict: 203.492

Branch types
NOT_BRANCH: 40848554 81.6971%
BRANCH_DIRECT_JUMP: 522045 1.04409%
BRANCH_INDIRECT: 204034 0.408068%
BRANCH_CONDITIONAL: 6212958 12.4259%
BRANCH_DIRECT_CALL: 932391 1.86478%
BRANCH_INDIRECT_CALL: 173764 0.347528%
BRANCH_RETURN: 1106152 2.2123%
BRANCH_OTHER: 0 0%

