Initialize SIGNATURE TABLE
ST_SET: 1
ST_WAY: 256
ST_TAG_BIT: 16
ST_TAG_MASK: ffff

Initialize PATTERN TABLE
PT_SET: 512
PT_WAY: 4
SIG_DELTA_BIT: 7
C_SIG_BIT: 4
C_DELTA_BIT: 4

Initialize PREFETCH FILTER
FILTER_SET: 1024

*** ChampSim Multicore Out-of-Order Simulator ***

Warmup Instructions: 50000000
Simulation Instructions: 50000000
Number of CPUs: 1
LLC sets: 2048
LLC ways: 16
Off-chip DRAM Size: 4096 MB Channels: 1 Width: 64-bit Data Rate: 3200 MT/s

CPU 0 runs /Users/gandhardeshpande/Desktop/CSE240C/HW1/ChampSim/ipc1_public/server_033.champsimtrace.xz
CPU 0 L1I next line prefetcher
Running FNL-MMA for L1I
CPU 0 L1D next line prefetcher
Heartbeat CPU 0 instructions: 10000001 cycles: 3340216 heartbeat IPC: 2.99382 cumulative IPC: 2.99382 (Simulation time: 0 hr 0 min 14 sec) 
Heartbeat CPU 0 instructions: 20000002 cycles: 6678641 heartbeat IPC: 2.99542 cumulative IPC: 2.99462 (Simulation time: 0 hr 0 min 29 sec) 
Heartbeat CPU 0 instructions: 30000001 cycles: 10006605 heartbeat IPC: 3.00484 cumulative IPC: 2.99802 (Simulation time: 0 hr 0 min 43 sec) 
Heartbeat CPU 0 instructions: 40000000 cycles: 13343869 heartbeat IPC: 2.99647 cumulative IPC: 2.99763 (Simulation time: 0 hr 0 min 58 sec) 
Heartbeat CPU 0 instructions: 50000000 cycles: 16680082 heartbeat IPC: 2.99741 cumulative IPC: 2.99759 (Simulation time: 0 hr 1 min 12 sec) 

Warmup complete CPU 0 instructions: 50000004 cycles: 16680083 (Simulation time: 0 hr 1 min 12 sec) 

Heartbeat CPU 0 instructions: 60000000 cycles: 23220997 heartbeat IPC: 1.52884 cumulative IPC: 1.52884 (Simulation time: 0 hr 1 min 28 sec) 
Heartbeat CPU 0 instructions: 70000000 cycles: 29754230 heartbeat IPC: 1.53064 cumulative IPC: 1.52974 (Simulation time: 0 hr 1 min 43 sec) 
Heartbeat CPU 0 instructions: 80000000 cycles: 37081585 heartbeat IPC: 1.36475 cumulative IPC: 1.47048 (Simulation time: 0 hr 1 min 58 sec) 
Heartbeat CPU 0 instructions: 90000003 cycles: 43731085 heartbeat IPC: 1.50387 cumulative IPC: 1.47869 (Simulation time: 0 hr 2 min 14 sec) 
Heartbeat CPU 0 instructions: 100000003 cycles: 50326709 heartbeat IPC: 1.51616 cumulative IPC: 1.48603 (Simulation time: 0 hr 2 min 29 sec) 
Finished CPU 0 instructions: 50000003 cycles: 33646627 cumulative IPC: 1.48603 (Simulation time: 0 hr 2 min 29 sec) 

ChampSim completed all CPUs

Region of Interest Statistics

CPU 0 cumulative IPC: 1.48603 instructions: 50000003 cycles: 33646627
L1D TOTAL     ACCESS:   18231199  HIT:   16748898  MISS:    1482301
L1D LOAD      ACCESS:    6140749  HIT:    5457484  MISS:     683265
L1D RFO       ACCESS:    6165339  HIT:    6015869  MISS:     149470
L1D PREFETCH  ACCESS:    5925111  HIT:    5275545  MISS:     649566
L1D WRITEBACK ACCESS:          0  HIT:          0  MISS:          0
L1D PREFETCH  REQUESTED:    6182434  ISSUED:    6062287  USEFUL:     141311  USELESS:     508261
L1D AVERAGE MISS LATENCY: 23.8165 cycles
L1I TOTAL     ACCESS:   15325139  HIT:   11139702  MISS:    4185437
L1I LOAD      ACCESS:    9688987  HIT:    9631067  MISS:      57920
L1I RFO       ACCESS:          0  HIT:          0  MISS:          0
L1I PREFETCH  ACCESS:    5636152  HIT:    1508635  MISS:    4127517
L1I WRITEBACK ACCESS:          0  HIT:          0  MISS:          0
L1I PREFETCH  REQUESTED:    5837114  ISSUED:    5837105  USEFUL:    3346379  USELESS:     781097
L1I AVERAGE MISS LATENCY: 15.2939 cycles
L2C TOTAL     ACCESS:    7558247  HIT:    7260305  MISS:     297942
L2C LOAD      ACCESS:     692557  HIT:     573209  MISS:     119348
L2C RFO       ACCESS:     148109  HIT:     128502  MISS:      19607
L2C PREFETCH  ACCESS:    6351139  HIT:    6193549  MISS:     157590
L2C WRITEBACK ACCESS:     366442  HIT:     365045  MISS:       1397
L2C PREFETCH  REQUESTED:    7676190  ISSUED:    7655487  USEFUL:       9542  USELESS:     147732
L2C AVERAGE MISS LATENCY: 50.9732 cycles
LLC TOTAL     ACCESS:    2449285  HIT:    2380337  MISS:      68948
LLC LOAD      ACCESS:     119291  HIT:     104546  MISS:      14745
LLC RFO       ACCESS:      19592  HIT:      16973  MISS:       2619
LLC PREFETCH  ACCESS:    2207595  HIT:    2156428  MISS:      51167
LLC WRITEBACK ACCESS:     102807  HIT:     102390  MISS:        417
LLC PREFETCH  REQUESTED:          0  ISSUED:          0  USEFUL:       7821  USELESS:      41589
LLC AVERAGE MISS LATENCY: 172.512 cycles
Major fault: 0 Minor fault: 2482
I-Shadow cache 408 bytes
Touched + WorthPF tables 98304 bytes 
MMA filter 174 bytes 
FNL filter 272 bytes 
TOTAL PREFETCHER STORAGE SIZE: 389974 bytes
CPU 0 L1I next line prefetcher final stats
CPU 0 L1D next line prefetcher final stats

DRAM Statistics
 CHANNEL 0
 RQ ROW_BUFFER_HIT:      10621  ROW_BUFFER_MISS:      57904
 DBUS_CONGESTED:      30143
 WQ ROW_BUFFER_HIT:       3954  ROW_BUFFER_MISS:      18690  FULL:          0

 AVG_CONGESTED_CYCLE: 5

CPU 0 Branch Prediction Accuracy: 99.9029% MPKI: 0.19006 Average ROB Occupancy at Mispredict: 249.637

Branch types
NOT_BRANCH: 40217117 80.4342%
BRANCH_DIRECT_JUMP: 774599 1.5492%
BRANCH_INDIRECT: 108806 0.217612%
BRANCH_CONDITIONAL: 6379333 12.7587%
BRANCH_DIRECT_CALL: 1048809 2.09762%
BRANCH_INDIRECT_CALL: 211109 0.422218%
BRANCH_RETURN: 1259925 2.51985%
BRANCH_OTHER: 0 0%

