Initialize SIGNATURE TABLE
ST_SET: 1
ST_WAY: 256
ST_TAG_BIT: 16
ST_TAG_MASK: ffff

Initialize PATTERN TABLE
PT_SET: 512
PT_WAY: 4
SIG_DELTA_BIT: 7
C_SIG_BIT: 4
C_DELTA_BIT: 4

Initialize PREFETCH FILTER
FILTER_SET: 1024

*** ChampSim Multicore Out-of-Order Simulator ***

Warmup Instructions: 50000000
Simulation Instructions: 50000000
Number of CPUs: 1
LLC sets: 2048
LLC ways: 16
Off-chip DRAM Size: 4096 MB Channels: 1 Width: 64-bit Data Rate: 3200 MT/s

CPU 0 runs /Users/gandhardeshpande/Desktop/CSE240C/HW1/ChampSim/ipc1_public/spec_x264_001.champsimtrace.xz
CPU 0 L1I next line prefetcher
Running FNL-MMA for L1I
CPU 0 L1D next line prefetcher
Heartbeat CPU 0 instructions: 10000002 cycles: 3060387 heartbeat IPC: 3.26756 cumulative IPC: 3.26756 (Simulation time: 0 hr 0 min 10 sec) 
Heartbeat CPU 0 instructions: 20000002 cycles: 6110854 heartbeat IPC: 3.27819 cumulative IPC: 3.27287 (Simulation time: 0 hr 0 min 20 sec) 
Heartbeat CPU 0 instructions: 30000002 cycles: 9146842 heartbeat IPC: 3.29382 cumulative IPC: 3.27982 (Simulation time: 0 hr 0 min 30 sec) 
Heartbeat CPU 0 instructions: 40000000 cycles: 12191867 heartbeat IPC: 3.28404 cumulative IPC: 3.28088 (Simulation time: 0 hr 0 min 39 sec) 
Heartbeat CPU 0 instructions: 50000000 cycles: 15235393 heartbeat IPC: 3.28566 cumulative IPC: 3.28183 (Simulation time: 0 hr 0 min 49 sec) 

Warmup complete CPU 0 instructions: 50000004 cycles: 15235394 (Simulation time: 0 hr 0 min 49 sec) 

Heartbeat CPU 0 instructions: 60000002 cycles: 21163471 heartbeat IPC: 1.68689 cumulative IPC: 1.68689 (Simulation time: 0 hr 0 min 54 sec) 
Heartbeat CPU 0 instructions: 70000000 cycles: 27071831 heartbeat IPC: 1.69252 cumulative IPC: 1.6897 (Simulation time: 0 hr 0 min 59 sec) 
Heartbeat CPU 0 instructions: 80000003 cycles: 33127073 heartbeat IPC: 1.65146 cumulative IPC: 1.67676 (Simulation time: 0 hr 1 min 5 sec) 
Heartbeat CPU 0 instructions: 90000002 cycles: 39158500 heartbeat IPC: 1.65798 cumulative IPC: 1.67202 (Simulation time: 0 hr 1 min 10 sec) 
Heartbeat CPU 0 instructions: 100000002 cycles: 45053751 heartbeat IPC: 1.69628 cumulative IPC: 1.67682 (Simulation time: 0 hr 1 min 15 sec) 
Finished CPU 0 instructions: 50000002 cycles: 29818358 cumulative IPC: 1.67682 (Simulation time: 0 hr 1 min 15 sec) 

ChampSim completed all CPUs

Region of Interest Statistics

CPU 0 cumulative IPC: 1.67682 instructions: 50000002 cycles: 29818358
L1D TOTAL     ACCESS:   12961491  HIT:   12800400  MISS:     161091
L1D LOAD      ACCESS:    5092115  HIT:    5036933  MISS:      55182
L1D RFO       ACCESS:    2883153  HIT:    2848907  MISS:      34246
L1D PREFETCH  ACCESS:    4986223  HIT:    4914560  MISS:      71663
L1D WRITEBACK ACCESS:          0  HIT:          0  MISS:          0
L1D PREFETCH  REQUESTED:    5108698  ISSUED:    5041957  USEFUL:      25778  USELESS:      45694
L1D AVERAGE MISS LATENCY: 39.3525 cycles
L1I TOTAL     ACCESS:    8569061  HIT:    8205337  MISS:     363724
L1I LOAD      ACCESS:    8039254  HIT:    8035603  MISS:       3651
L1I RFO       ACCESS:          0  HIT:          0  MISS:          0
L1I PREFETCH  ACCESS:     529807  HIT:     169734  MISS:     360073
L1I WRITEBACK ACCESS:          0  HIT:          0  MISS:          0
L1I PREFETCH  REQUESTED:     538607  ISSUED:     538607  USEFUL:     292716  USELESS:      67384
L1I AVERAGE MISS LATENCY: 14.7724 cycles
L2C TOTAL     ACCESS:     746471  HIT:     707203  MISS:      39268
L2C LOAD      ACCESS:      57284  HIT:      51799  MISS:       5485
L2C RFO       ACCESS:      34005  HIT:      21952  MISS:      12053
L2C PREFETCH  ACCESS:     612125  HIT:     590474  MISS:      21651
L2C WRITEBACK ACCESS:      43057  HIT:      42978  MISS:         79
L2C PREFETCH  REQUESTED:     582987  ISSUED:     581445  USEFUL:       8970  USELESS:      12878
L2C AVERAGE MISS LATENCY: 100.822 cycles
LLC TOTAL     ACCESS:     142354  HIT:     113244  MISS:      29110
LLC LOAD      ACCESS:       5484  HIT:       3336  MISS:       2148
LLC RFO       ACCESS:      12053  HIT:        446  MISS:      11607
LLC PREFETCH  ACCESS:     111256  HIT:      95998  MISS:      15258
LLC WRITEBACK ACCESS:      13561  HIT:      13464  MISS:         97
LLC PREFETCH  REQUESTED:          0  ISSUED:          0  USEFUL:       1742  USELESS:      14054
LLC AVERAGE MISS LATENCY: 161.61 cycles
Major fault: 0 Minor fault: 1284
I-Shadow cache 408 bytes
Touched + WorthPF tables 98304 bytes 
MMA filter 174 bytes 
FNL filter 272 bytes 
TOTAL PREFETCHER STORAGE SIZE: 389974 bytes
CPU 0 L1I next line prefetcher final stats
CPU 0 L1D next line prefetcher final stats

DRAM Statistics
 CHANNEL 0
 RQ ROW_BUFFER_HIT:      10067  ROW_BUFFER_MISS:      18946
 DBUS_CONGESTED:      12535
 WQ ROW_BUFFER_HIT:       3081  ROW_BUFFER_MISS:       9573  FULL:          0

 AVG_CONGESTED_CYCLE: 6

CPU 0 Branch Prediction Accuracy: 97.1633% MPKI: 1.73704 Average ROB Occupancy at Mispredict: 42.8585

Branch types
NOT_BRANCH: 46937921 93.8758%
BRANCH_DIRECT_JUMP: 170816 0.341632%
BRANCH_INDIRECT: 0 0%
BRANCH_CONDITIONAL: 2532774 5.06555%
BRANCH_DIRECT_CALL: 114227 0.228454%
BRANCH_INDIRECT_CALL: 64863 0.129726%
BRANCH_RETURN: 179089 0.358178%
BRANCH_OTHER: 0 0%

