Initialize SIGNATURE TABLE
ST_SET: 1
ST_WAY: 256
ST_TAG_BIT: 16
ST_TAG_MASK: ffff

Initialize PATTERN TABLE
PT_SET: 512
PT_WAY: 4
SIG_DELTA_BIT: 7
C_SIG_BIT: 4
C_DELTA_BIT: 4

Initialize PREFETCH FILTER
FILTER_SET: 1024

*** ChampSim Multicore Out-of-Order Simulator ***

Warmup Instructions: 50000000
Simulation Instructions: 50000000
Number of CPUs: 1
LLC sets: 2048
LLC ways: 16
Off-chip DRAM Size: 4096 MB Channels: 1 Width: 64-bit Data Rate: 3200 MT/s

CPU 0 runs /Users/gandhardeshpande/Desktop/CSE240C/HW1/ChampSim/ipc1_public/server_036.champsimtrace.xz
L1I Barca has been initializedCPU 0 L1D next line prefetcher
Heartbeat CPU 0 instructions: 10000000 cycles: 3459051 heartbeat IPC: 2.89097 cumulative IPC: 2.89097 (Simulation time: 0 hr 0 min 20 sec) 
Heartbeat CPU 0 instructions: 20000000 cycles: 6924850 heartbeat IPC: 2.88534 cumulative IPC: 2.88815 (Simulation time: 0 hr 0 min 40 sec) 
Heartbeat CPU 0 instructions: 30000003 cycles: 10433242 heartbeat IPC: 2.85031 cumulative IPC: 2.87542 (Simulation time: 0 hr 0 min 59 sec) 
Heartbeat CPU 0 instructions: 40000000 cycles: 13895757 heartbeat IPC: 2.88807 cumulative IPC: 2.87858 (Simulation time: 0 hr 1 min 20 sec) 
Heartbeat CPU 0 instructions: 50000002 cycles: 17357473 heartbeat IPC: 2.88874 cumulative IPC: 2.8806 (Simulation time: 0 hr 1 min 41 sec) 

Warmup complete CPU 0 instructions: 50000002 cycles: 17357473 (Simulation time: 0 hr 1 min 41 sec) 

Heartbeat CPU 0 instructions: 60000002 cycles: 23033955 heartbeat IPC: 1.76165 cumulative IPC: 1.76165 (Simulation time: 0 hr 1 min 59 sec) 
Heartbeat CPU 0 instructions: 70000001 cycles: 28664331 heartbeat IPC: 1.77608 cumulative IPC: 1.76884 (Simulation time: 0 hr 2 min 18 sec) 
Heartbeat CPU 0 instructions: 80000001 cycles: 34319592 heartbeat IPC: 1.76827 cumulative IPC: 1.76865 (Simulation time: 0 hr 2 min 36 sec) 
Heartbeat CPU 0 instructions: 90000002 cycles: 39937647 heartbeat IPC: 1.77998 cumulative IPC: 1.77147 (Simulation time: 0 hr 2 min 55 sec) 
Heartbeat CPU 0 instructions: 100000001 cycles: 45548692 heartbeat IPC: 1.7822 cumulative IPC: 1.7736 (Simulation time: 0 hr 3 min 13 sec) 
Finished CPU 0 instructions: 50000003 cycles: 28191220 cumulative IPC: 1.7736 (Simulation time: 0 hr 3 min 13 sec) 

ChampSim completed all CPUs

Region of Interest Statistics

CPU 0 cumulative IPC: 1.7736 instructions: 50000003 cycles: 28191220
L1D TOTAL     ACCESS:   20700293  HIT:   20640479  MISS:      59814
L1D LOAD      ACCESS:    6775067  HIT:    6740442  MISS:      34625
L1D RFO       ACCESS:    7347346  HIT:    7340159  MISS:       7187
L1D PREFETCH  ACCESS:    6577880  HIT:    6559878  MISS:      18002
L1D WRITEBACK ACCESS:          0  HIT:          0  MISS:          0
L1D PREFETCH  REQUESTED:    6776018  ISSUED:    6611718  USEFUL:       5463  USELESS:      12540
L1D AVERAGE MISS LATENCY: 18.2693 cycles
L1I TOTAL     ACCESS:   13941822  HIT:    9719053  MISS:    4222769
L1I LOAD      ACCESS:    8863808  HIT:    8564027  MISS:     299781
L1I RFO       ACCESS:          0  HIT:          0  MISS:          0
L1I PREFETCH  ACCESS:    5078014  HIT:    1155026  MISS:    3922988
L1I WRITEBACK ACCESS:          0  HIT:          0  MISS:          0
L1I PREFETCH  REQUESTED:    5854820  ISSUED:    5854820  USEFUL:    3559152  USELESS:     363853
L1I AVERAGE MISS LATENCY: 13.8682 cycles
L2C TOTAL     ACCESS:    5843210  HIT:    5840872  MISS:       2338
L2C LOAD      ACCESS:     121724  HIT:     121350  MISS:        374
L2C RFO       ACCESS:       7179  HIT:       7128  MISS:         51
L2C PREFETCH  ACCESS:    5698717  HIT:    5696816  MISS:       1901
L2C WRITEBACK ACCESS:      15590  HIT:      15578  MISS:         12
L2C PREFETCH  REQUESTED:    3720531  ISSUED:    3719395  USEFUL:        137  USELESS:       1024
L2C AVERAGE MISS LATENCY: 168.769 cycles
LLC TOTAL     ACCESS:     842503  HIT:     839236  MISS:       3267
LLC LOAD      ACCESS:        372  HIT:        162  MISS:        210
LLC RFO       ACCESS:         51  HIT:         23  MISS:         28
LLC PREFETCH  ACCESS:     841169  HIT:     838150  MISS:       3019
LLC WRITEBACK ACCESS:        911  HIT:        901  MISS:         10
LLC PREFETCH  REQUESTED:          0  ISSUED:          0  USEFUL:         83  USELESS:        832
LLC AVERAGE MISS LATENCY: 308.215 cycles
Major fault: 0 Minor fault: 1926
CPU 0 L1D next line prefetcher final stats

DRAM Statistics
 CHANNEL 0
 RQ ROW_BUFFER_HIT:        643  ROW_BUFFER_MISS:       2614
 DBUS_CONGESTED:       1729
 WQ ROW_BUFFER_HIT:        262  ROW_BUFFER_MISS:       1814  FULL:          0

 AVG_CONGESTED_CYCLE: 6

CPU 0 Branch Prediction Accuracy: 99.8717% MPKI: 0.21174 Average ROB Occupancy at Mispredict: 217.018

Branch types
NOT_BRANCH: 41748446 83.4969%
BRANCH_DIRECT_JUMP: 468564 0.937128%
BRANCH_INDIRECT: 0 0%
BRANCH_CONDITIONAL: 5599754 11.1995%
BRANCH_DIRECT_CALL: 885106 1.77021%
BRANCH_INDIRECT_CALL: 206338 0.412676%
BRANCH_RETURN: 1091468 2.18294%
BRANCH_OTHER: 0 0%

