Initialize SIGNATURE TABLE
ST_SET: 1
ST_WAY: 256
ST_TAG_BIT: 16
ST_TAG_MASK: ffff

Initialize PATTERN TABLE
PT_SET: 512
PT_WAY: 4
SIG_DELTA_BIT: 7
C_SIG_BIT: 4
C_DELTA_BIT: 4

Initialize PREFETCH FILTER
FILTER_SET: 1024

*** ChampSim Multicore Out-of-Order Simulator ***

Warmup Instructions: 50000000
Simulation Instructions: 50000000
Number of CPUs: 1
LLC sets: 2048
LLC ways: 16
Off-chip DRAM Size: 4096 MB Channels: 1 Width: 64-bit Data Rate: 3200 MT/s

CPU 0 runs /Users/gandhardeshpande/Desktop/CSE240C/HW1/ChampSim/ipc1_public/server_039.champsimtrace.xz
L1I Barca has been initializedCPU 0 L1D next line prefetcher
Heartbeat CPU 0 instructions: 10000003 cycles: 3451807 heartbeat IPC: 2.89703 cumulative IPC: 2.89703 (Simulation time: 0 hr 0 min 22 sec) 
Heartbeat CPU 0 instructions: 20000002 cycles: 6896620 heartbeat IPC: 2.90292 cumulative IPC: 2.89997 (Simulation time: 0 hr 0 min 43 sec) 
Heartbeat CPU 0 instructions: 30000001 cycles: 10343348 heartbeat IPC: 2.9013 cumulative IPC: 2.90041 (Simulation time: 0 hr 1 min 5 sec) 
Heartbeat CPU 0 instructions: 40000002 cycles: 13785564 heartbeat IPC: 2.90511 cumulative IPC: 2.90159 (Simulation time: 0 hr 1 min 27 sec) 
Heartbeat CPU 0 instructions: 50000001 cycles: 17227078 heartbeat IPC: 2.9057 cumulative IPC: 2.90241 (Simulation time: 0 hr 1 min 49 sec) 

Warmup complete CPU 0 instructions: 50000001 cycles: 17227078 (Simulation time: 0 hr 1 min 49 sec) 

Heartbeat CPU 0 instructions: 60000000 cycles: 23063977 heartbeat IPC: 1.71324 cumulative IPC: 1.71324 (Simulation time: 0 hr 2 min 10 sec) 
Heartbeat CPU 0 instructions: 70000000 cycles: 28896816 heartbeat IPC: 1.71443 cumulative IPC: 1.71383 (Simulation time: 0 hr 2 min 31 sec) 
Heartbeat CPU 0 instructions: 80000000 cycles: 34744887 heartbeat IPC: 1.70997 cumulative IPC: 1.71254 (Simulation time: 0 hr 2 min 52 sec) 
Heartbeat CPU 0 instructions: 90000001 cycles: 40580811 heartbeat IPC: 1.71352 cumulative IPC: 1.71279 (Simulation time: 0 hr 3 min 14 sec) 
Heartbeat CPU 0 instructions: 100000002 cycles: 46423746 heartbeat IPC: 1.71147 cumulative IPC: 1.71252 (Simulation time: 0 hr 3 min 35 sec) 
Finished CPU 0 instructions: 50000001 cycles: 29196668 cumulative IPC: 1.71252 (Simulation time: 0 hr 3 min 35 sec) 

ChampSim completed all CPUs

Region of Interest Statistics

CPU 0 cumulative IPC: 1.71252 instructions: 50000001 cycles: 29196668
L1D TOTAL     ACCESS:   19971076  HIT:   19476314  MISS:     494762
L1D LOAD      ACCESS:    6531431  HIT:    6309715  MISS:     221716
L1D RFO       ACCESS:    7091106  HIT:    7024215  MISS:      66891
L1D PREFETCH  ACCESS:    6348539  HIT:    6142384  MISS:     206155
L1D WRITEBACK ACCESS:          0  HIT:          0  MISS:          0
L1D PREFETCH  REQUESTED:    6547418  ISSUED:    6419083  USEFUL:      50018  USELESS:     156141
L1D AVERAGE MISS LATENCY: 15.0917 cycles
L1I TOTAL     ACCESS:   15274251  HIT:   10176943  MISS:    5097308
L1I LOAD      ACCESS:    9251787  HIT:    8895946  MISS:     355841
L1I RFO       ACCESS:          0  HIT:          0  MISS:          0
L1I PREFETCH  ACCESS:    6022464  HIT:    1280997  MISS:    4741467
L1I WRITEBACK ACCESS:          0  HIT:          0  MISS:          0
L1I PREFETCH  REQUESTED:    6913850  ISSUED:    6913850  USEFUL:    3858667  USELESS:     882825
L1I AVERAGE MISS LATENCY: 13.9402 cycles
L2C TOTAL     ACCESS:    7475851  HIT:    7475674  MISS:        177
L2C LOAD      ACCESS:     330034  HIT:     330031  MISS:          3
L2C RFO       ACCESS:      66750  HIT:      66750  MISS:          0
L2C PREFETCH  ACCESS:    6899011  HIT:    6898837  MISS:        174
L2C WRITEBACK ACCESS:     180056  HIT:     180056  MISS:          0
L2C PREFETCH  REQUESTED:    4345505  ISSUED:    4342893  USEFUL:          1  USELESS:          0
L2C AVERAGE MISS LATENCY: 34.8418 cycles
LLC TOTAL     ACCESS:    1078356  HIT:    1077438  MISS:        918
LLC LOAD      ACCESS:          3  HIT:          2  MISS:          1
LLC RFO       ACCESS:          0  HIT:          0  MISS:          0
LLC PREFETCH  ACCESS:    1078353  HIT:    1077436  MISS:        917
LLC WRITEBACK ACCESS:          0  HIT:          0  MISS:          0
LLC PREFETCH  REQUESTED:          0  ISSUED:          0  USEFUL:          2  USELESS:          0
LLC AVERAGE MISS LATENCY: 188.476 cycles
Major fault: 0 Minor fault: 356
CPU 0 L1D next line prefetcher final stats

DRAM Statistics
 CHANNEL 0
 RQ ROW_BUFFER_HIT:        154  ROW_BUFFER_MISS:        764
 DBUS_CONGESTED:        117
 WQ ROW_BUFFER_HIT:          0  ROW_BUFFER_MISS:          0  FULL:          0

 AVG_CONGESTED_CYCLE: 5

CPU 0 Branch Prediction Accuracy: 99.9091% MPKI: 0.1547 Average ROB Occupancy at Mispredict: 253.051

Branch types
NOT_BRANCH: 41495016 82.99%
BRANCH_DIRECT_JUMP: 491309 0.982618%
BRANCH_INDIRECT: 0 0%
BRANCH_CONDITIONAL: 5595263 11.1905%
BRANCH_DIRECT_CALL: 1028408 2.05682%
BRANCH_INDIRECT_CALL: 180756 0.361512%
BRANCH_RETURN: 1209170 2.41834%
BRANCH_OTHER: 0 0%

