Initialize SIGNATURE TABLE
ST_SET: 1
ST_WAY: 256
ST_TAG_BIT: 16
ST_TAG_MASK: ffff

Initialize PATTERN TABLE
PT_SET: 512
PT_WAY: 4
SIG_DELTA_BIT: 7
C_SIG_BIT: 4
C_DELTA_BIT: 4

Initialize PREFETCH FILTER
FILTER_SET: 1024

*** ChampSim Multicore Out-of-Order Simulator ***

Warmup Instructions: 50000000
Simulation Instructions: 50000000
Number of CPUs: 1
LLC sets: 2048
LLC ways: 16
Off-chip DRAM Size: 4096 MB Channels: 1 Width: 64-bit Data Rate: 3200 MT/s

CPU 0 runs /Users/gandhardeshpande/Desktop/CSE240C/HW1/ChampSim/ipc1_public/server_034.champsimtrace.xz
L1I Barca has been initializedCPU 0 L1D next line prefetcher
Heartbeat CPU 0 instructions: 10000000 cycles: 3329434 heartbeat IPC: 3.00351 cumulative IPC: 3.00351 (Simulation time: 0 hr 0 min 21 sec) 
Heartbeat CPU 0 instructions: 20000002 cycles: 6651788 heartbeat IPC: 3.00991 cumulative IPC: 3.00671 (Simulation time: 0 hr 0 min 43 sec) 
Heartbeat CPU 0 instructions: 30000003 cycles: 9982540 heartbeat IPC: 3.00233 cumulative IPC: 3.00525 (Simulation time: 0 hr 1 min 5 sec) 
Heartbeat CPU 0 instructions: 40000001 cycles: 13311399 heartbeat IPC: 3.00403 cumulative IPC: 3.00494 (Simulation time: 0 hr 1 min 26 sec) 
Heartbeat CPU 0 instructions: 50000000 cycles: 16639116 heartbeat IPC: 3.00506 cumulative IPC: 3.00497 (Simulation time: 0 hr 1 min 48 sec) 

Warmup complete CPU 0 instructions: 50000002 cycles: 16639117 (Simulation time: 0 hr 1 min 48 sec) 

Heartbeat CPU 0 instructions: 60000002 cycles: 22582161 heartbeat IPC: 1.68264 cumulative IPC: 1.68264 (Simulation time: 0 hr 2 min 10 sec) 
Heartbeat CPU 0 instructions: 70000003 cycles: 28959574 heartbeat IPC: 1.56803 cumulative IPC: 1.62332 (Simulation time: 0 hr 2 min 32 sec) 
Heartbeat CPU 0 instructions: 80000002 cycles: 34970766 heartbeat IPC: 1.66356 cumulative IPC: 1.63651 (Simulation time: 0 hr 2 min 54 sec) 
Heartbeat CPU 0 instructions: 90000002 cycles: 40982075 heartbeat IPC: 1.66353 cumulative IPC: 1.64319 (Simulation time: 0 hr 3 min 16 sec) 
Heartbeat CPU 0 instructions: 100000002 cycles: 46978143 heartbeat IPC: 1.66776 cumulative IPC: 1.64804 (Simulation time: 0 hr 3 min 39 sec) 
Finished CPU 0 instructions: 50000000 cycles: 30339026 cumulative IPC: 1.64804 (Simulation time: 0 hr 3 min 39 sec) 

ChampSim completed all CPUs

Region of Interest Statistics

CPU 0 cumulative IPC: 1.64804 instructions: 50000000 cycles: 30339026
L1D TOTAL     ACCESS:   18284269  HIT:   16860168  MISS:    1424101
L1D LOAD      ACCESS:    6151127  HIT:    5495026  MISS:     656101
L1D RFO       ACCESS:    6163486  HIT:    6020664  MISS:     142822
L1D PREFETCH  ACCESS:    5969656  HIT:    5344478  MISS:     625178
L1D WRITEBACK ACCESS:          0  HIT:          0  MISS:          0
L1D PREFETCH  REQUESTED:    6185560  ISSUED:    6096389  USEFUL:     140733  USELESS:     484414
L1D AVERAGE MISS LATENCY: 17.5657 cycles
L1I TOTAL     ACCESS:   14421317  HIT:   10167137  MISS:    4254180
L1I LOAD      ACCESS:    9598850  HIT:    9284900  MISS:     313950
L1I RFO       ACCESS:          0  HIT:          0  MISS:          0
L1I PREFETCH  ACCESS:    4822467  HIT:     882237  MISS:    3940230
L1I WRITEBACK ACCESS:          0  HIT:          0  MISS:          0
L1I PREFETCH  REQUESTED:    5536134  ISSUED:    5536134  USEFUL:    3067464  USELESS:     872785
L1I AVERAGE MISS LATENCY: 14.1256 cycles
L2C TOTAL     ACCESS:    7616812  HIT:    7527326  MISS:      89486
L2C LOAD      ACCESS:     753188  HIT:     719622  MISS:      33566
L2C RFO       ACCESS:     141013  HIT:     133363  MISS:       7650
L2C PREFETCH  ACCESS:    6371936  HIT:    6324309  MISS:      47627
L2C WRITEBACK ACCESS:     350675  HIT:     350032  MISS:        643
L2C PREFETCH  REQUESTED:    4612402  ISSUED:    4606227  USEFUL:       2519  USELESS:      44254
L2C AVERAGE MISS LATENCY: 45.1732 cycles
LLC TOTAL     ACCESS:    1544914  HIT:    1528537  MISS:      16377
LLC LOAD      ACCESS:      33462  HIT:      30202  MISS:       3260
LLC RFO       ACCESS:       7649  HIT:       7322  MISS:        327
LLC PREFETCH  ACCESS:    1467987  HIT:    1455276  MISS:      12711
LLC WRITEBACK ACCESS:      35816  HIT:      35737  MISS:         79
LLC PREFETCH  REQUESTED:          0  ISSUED:          0  USEFUL:       3101  USELESS:       6992
LLC AVERAGE MISS LATENCY: 161.286 cycles
Major fault: 0 Minor fault: 1170
CPU 0 L1D next line prefetcher final stats

DRAM Statistics
 CHANNEL 0
 RQ ROW_BUFFER_HIT:       3569  ROW_BUFFER_MISS:      12722
 DBUS_CONGESTED:       6645
 WQ ROW_BUFFER_HIT:       1348  ROW_BUFFER_MISS:       3585  FULL:          0

 AVG_CONGESTED_CYCLE: 5

CPU 0 Branch Prediction Accuracy: 99.926% MPKI: 0.14472 Average ROB Occupancy at Mispredict: 239.36

Branch types
NOT_BRANCH: 40221035 80.4421%
BRANCH_DIRECT_JUMP: 771319 1.54264%
BRANCH_INDIRECT: 108663 0.217326%
BRANCH_CONDITIONAL: 6375037 12.7501%
BRANCH_DIRECT_CALL: 1049637 2.09927%
BRANCH_INDIRECT_CALL: 212282 0.424564%
BRANCH_RETURN: 1261925 2.52385%
BRANCH_OTHER: 0 0%

