
*** ChampSim Multicore Out-of-Order Simulator ***

Warmup Instructions: 10000000
Simulation Instructions: 100000000
Configuration: 2
Number of CPUs: 1
LLC sets: 2048
LLC ways: 16
Off-chip DRAM Channels: 1 Width: 64-bit Data Rate: 1600 MT/s

CPU 0 runs /datasets/cs240c-wi22-a00-public/data/Assignment2-gz/libquantum_1735B.trace.gz
CPU 0 L1D next line prefetcher
CPU 0 L2C IP-based stride prefetcher
Heartbeat CPU 0 instructions: 1000001 cycles: 333341 heartbeat IPC: 2.99993 cumulative IPC: 2.99993 (Simulation time: 0 hr 0 min 17 sec) 
Heartbeat CPU 0 instructions: 2000000 cycles: 666674 heartbeat IPC: 3 cumulative IPC: 2.99997 (Simulation time: 0 hr 0 min 35 sec) 
Heartbeat CPU 0 instructions: 3000000 cycles: 989045 heartbeat IPC: 3.10202 cumulative IPC: 3.03323 (Simulation time: 0 hr 0 min 56 sec) 
Heartbeat CPU 0 instructions: 4000000 cycles: 1290770 heartbeat IPC: 3.31428 cumulative IPC: 3.09893 (Simulation time: 0 hr 1 min 12 sec) 
Heartbeat CPU 0 instructions: 5000001 cycles: 1592495 heartbeat IPC: 3.31428 cumulative IPC: 3.13973 (Simulation time: 0 hr 1 min 28 sec) 
Heartbeat CPU 0 instructions: 6000001 cycles: 1894219 heartbeat IPC: 3.31429 cumulative IPC: 3.16753 (Simulation time: 0 hr 1 min 45 sec) 
Heartbeat CPU 0 instructions: 7000002 cycles: 2195942 heartbeat IPC: 3.3143 cumulative IPC: 3.1877 (Simulation time: 0 hr 2 min 3 sec) 
Heartbeat CPU 0 instructions: 8000000 cycles: 2501897 heartbeat IPC: 3.26845 cumulative IPC: 3.19757 (Simulation time: 0 hr 2 min 20 sec) 
Heartbeat CPU 0 instructions: 9000000 cycles: 2835230 heartbeat IPC: 3 cumulative IPC: 3.17435 (Simulation time: 0 hr 2 min 41 sec) 
Heartbeat CPU 0 instructions: 10000002 cycles: 3168564 heartbeat IPC: 3 cumulative IPC: 3.156 (Simulation time: 0 hr 2 min 59 sec) 

Warmup complete CPU 0 instructions: 10000002 cycles: 3168564 (Simulation time: 0 hr 2 min 59 sec) 

Heartbeat CPU 0 instructions: 11000001 cycles: 4602178 heartbeat IPC: 0.697537 cumulative IPC: 0.697537 (Simulation time: 0 hr 3 min 30 sec) 
Heartbeat CPU 0 instructions: 12000000 cycles: 6027434 heartbeat IPC: 0.701628 cumulative IPC: 0.699576 (Simulation time: 0 hr 4 min 0 sec) 
Heartbeat CPU 0 instructions: 13000001 cycles: 7847212 heartbeat IPC: 0.549518 cumulative IPC: 0.641211 (Simulation time: 0 hr 4 min 32 sec) 
Heartbeat CPU 0 instructions: 14000000 cycles: 10339382 heartbeat IPC: 0.401256 cumulative IPC: 0.557816 (Simulation time: 0 hr 5 min 7 sec) 
Heartbeat CPU 0 instructions: 15000000 cycles: 12831439 heartbeat IPC: 0.401275 cumulative IPC: 0.517444 (Simulation time: 0 hr 5 min 33 sec) 
Heartbeat CPU 0 instructions: 16000000 cycles: 15311287 heartbeat IPC: 0.403251 cumulative IPC: 0.494123 (Simulation time: 0 hr 5 min 58 sec) 
Heartbeat CPU 0 instructions: 17000002 cycles: 17807991 heartbeat IPC: 0.400529 cumulative IPC: 0.478161 (Simulation time: 0 hr 6 min 23 sec) 
Heartbeat CPU 0 instructions: 18000001 cycles: 19986045 heartbeat IPC: 0.459125 cumulative IPC: 0.475695 (Simulation time: 0 hr 6 min 49 sec) 
Heartbeat CPU 0 instructions: 19000000 cycles: 21506243 heartbeat IPC: 0.657808 cumulative IPC: 0.490793 (Simulation time: 0 hr 7 min 18 sec) 
Heartbeat CPU 0 instructions: 20000000 cycles: 23008457 heartbeat IPC: 0.665684 cumulative IPC: 0.504035 (Simulation time: 0 hr 7 min 45 sec) 
Heartbeat CPU 0 instructions: 21000001 cycles: 24508087 heartbeat IPC: 0.666832 cumulative IPC: 0.515475 (Simulation time: 0 hr 8 min 16 sec) 
Heartbeat CPU 0 instructions: 22000000 cycles: 26007593 heartbeat IPC: 0.666886 cumulative IPC: 0.525416 (Simulation time: 0 hr 8 min 46 sec) 
Heartbeat CPU 0 instructions: 23000000 cycles: 28209148 heartbeat IPC: 0.454224 cumulative IPC: 0.519157 (Simulation time: 0 hr 9 min 18 sec) 
Heartbeat CPU 0 instructions: 24000000 cycles: 30870004 heartbeat IPC: 0.375819 cumulative IPC: 0.505389 (Simulation time: 0 hr 9 min 44 sec) 
Heartbeat CPU 0 instructions: 25000000 cycles: 33538876 heartbeat IPC: 0.37469 cumulative IPC: 0.493903 (Simulation time: 0 hr 10 min 9 sec) 
Heartbeat CPU 0 instructions: 26000000 cycles: 36187628 heartbeat IPC: 0.377536 cumulative IPC: 0.484568 (Simulation time: 0 hr 10 min 36 sec) 
Heartbeat CPU 0 instructions: 27000001 cycles: 38853951 heartbeat IPC: 0.375049 cumulative IPC: 0.476385 (Simulation time: 0 hr 11 min 7 sec) 
Heartbeat CPU 0 instructions: 28000000 cycles: 40822680 heartbeat IPC: 0.507941 cumulative IPC: 0.478035 (Simulation time: 0 hr 11 min 38 sec) 
Heartbeat CPU 0 instructions: 29000000 cycles: 42244622 heartbeat IPC: 0.703264 cumulative IPC: 0.486231 (Simulation time: 0 hr 12 min 8 sec) 
Heartbeat CPU 0 instructions: 30000001 cycles: 43668179 heartbeat IPC: 0.702466 cumulative IPC: 0.493832 (Simulation time: 0 hr 12 min 40 sec) 
Heartbeat CPU 0 instructions: 31000000 cycles: 45091253 heartbeat IPC: 0.702703 cumulative IPC: 0.500922 (Simulation time: 0 hr 13 min 13 sec) 
Heartbeat CPU 0 instructions: 32000000 cycles: 46501614 heartbeat IPC: 0.709038 cumulative IPC: 0.507696 (Simulation time: 0 hr 13 min 42 sec) 
Heartbeat CPU 0 instructions: 33000002 cycles: 48540291 heartbeat IPC: 0.490515 cumulative IPC: 0.506924 (Simulation time: 0 hr 14 min 8 sec) 
Heartbeat CPU 0 instructions: 34000000 cycles: 50710049 heartbeat IPC: 0.46088 cumulative IPC: 0.504822 (Simulation time: 0 hr 14 min 39 sec) 
Heartbeat CPU 0 instructions: 35000000 cycles: 52869871 heartbeat IPC: 0.463001 cumulative IPC: 0.503005 (Simulation time: 0 hr 15 min 5 sec) 
Heartbeat CPU 0 instructions: 36000000 cycles: 55042306 heartbeat IPC: 0.460313 cumulative IPC: 0.501217 (Simulation time: 0 hr 15 min 32 sec) 
Heartbeat CPU 0 instructions: 37000002 cycles: 57215012 heartbeat IPC: 0.460256 cumulative IPC: 0.49957 (Simulation time: 0 hr 16 min 10 sec) 
Heartbeat CPU 0 instructions: 38000003 cycles: 58925723 heartbeat IPC: 0.584553 cumulative IPC: 0.502178 (Simulation time: 0 hr 16 min 41 sec) 
Heartbeat CPU 0 instructions: 39000000 cycles: 60337129 heartbeat IPC: 0.708511 cumulative IPC: 0.507272 (Simulation time: 0 hr 17 min 12 sec) 
Heartbeat CPU 0 instructions: 40000000 cycles: 61773478 heartbeat IPC: 0.69621 cumulative IPC: 0.511902 (Simulation time: 0 hr 17 min 45 sec) 
Heartbeat CPU 0 instructions: 41000000 cycles: 63266997 heartbeat IPC: 0.66956 cumulative IPC: 0.51582 (Simulation time: 0 hr 18 min 16 sec) 
Heartbeat CPU 0 instructions: 42000001 cycles: 64685177 heartbeat IPC: 0.70513 cumulative IPC: 0.520185 (Simulation time: 0 hr 18 min 50 sec) 
Heartbeat CPU 0 instructions: 43000000 cycles: 66748358 heartbeat IPC: 0.484688 cumulative IPC: 0.519033 (Simulation time: 0 hr 19 min 20 sec) 
Heartbeat CPU 0 instructions: 44000000 cycles: 68913532 heartbeat IPC: 0.461857 cumulative IPC: 0.51715 (Simulation time: 0 hr 19 min 54 sec) 
Heartbeat CPU 0 instructions: 45000001 cycles: 71077932 heartbeat IPC: 0.462022 cumulative IPC: 0.515393 (Simulation time: 0 hr 20 min 26 sec) 
Heartbeat CPU 0 instructions: 46000002 cycles: 73230061 heartbeat IPC: 0.464657 cumulative IPC: 0.513834 (Simulation time: 0 hr 20 min 57 sec) 
Heartbeat CPU 0 instructions: 47000000 cycles: 75397580 heartbeat IPC: 0.461356 cumulative IPC: 0.512259 (Simulation time: 0 hr 21 min 27 sec) 
Heartbeat CPU 0 instructions: 48000000 cycles: 77135024 heartbeat IPC: 0.575558 cumulative IPC: 0.513746 (Simulation time: 0 hr 21 min 59 sec) 
Heartbeat CPU 0 instructions: 49000002 cycles: 78654616 heartbeat IPC: 0.658073 cumulative IPC: 0.516652 (Simulation time: 0 hr 22 min 37 sec) 
Heartbeat CPU 0 instructions: 50000001 cycles: 80190993 heartbeat IPC: 0.650881 cumulative IPC: 0.519329 (Simulation time: 0 hr 23 min 10 sec) 
Heartbeat CPU 0 instructions: 51000000 cycles: 81710500 heartbeat IPC: 0.658108 cumulative IPC: 0.522014 (Simulation time: 0 hr 23 min 47 sec) 
Heartbeat CPU 0 instructions: 52000000 cycles: 83233962 heartbeat IPC: 0.6564 cumulative IPC: 0.524571 (Simulation time: 0 hr 24 min 22 sec) 
Heartbeat CPU 0 instructions: 53000002 cycles: 84755575 heartbeat IPC: 0.657199 cumulative IPC: 0.527045 (Simulation time: 0 hr 24 min 54 sec) 
Heartbeat CPU 0 instructions: 54000001 cycles: 86276224 heartbeat IPC: 0.657613 cumulative IPC: 0.529434 (Simulation time: 0 hr 25 min 28 sec) 
Heartbeat CPU 0 instructions: 55000000 cycles: 87803167 heartbeat IPC: 0.654903 cumulative IPC: 0.531697 (Simulation time: 0 hr 26 min 6 sec) 
Heartbeat CPU 0 instructions: 56000000 cycles: 89327151 heartbeat IPC: 0.656175 cumulative IPC: 0.533899 (Simulation time: 0 hr 26 min 41 sec) 
Heartbeat CPU 0 instructions: 57000000 cycles: 90854762 heartbeat IPC: 0.654617 cumulative IPC: 0.536002 (Simulation time: 0 hr 27 min 13 sec) 
Heartbeat CPU 0 instructions: 58000002 cycles: 92374549 heartbeat IPC: 0.657988 cumulative IPC: 0.538081 (Simulation time: 0 hr 27 min 46 sec) 
Heartbeat CPU 0 instructions: 59000001 cycles: 93921049 heartbeat IPC: 0.646621 cumulative IPC: 0.53993 (Simulation time: 0 hr 28 min 18 sec) 
Heartbeat CPU 0 instructions: 60000000 cycles: 95517532 heartbeat IPC: 0.626376 cumulative IPC: 0.541425 (Simulation time: 0 hr 28 min 48 sec) 
Heartbeat CPU 0 instructions: 61000003 cycles: 97052706 heartbeat IPC: 0.651394 cumulative IPC: 0.543223 (Simulation time: 0 hr 29 min 18 sec) 
Heartbeat CPU 0 instructions: 62000002 cycles: 98572178 heartbeat IPC: 0.658123 cumulative IPC: 0.545053 (Simulation time: 0 hr 29 min 53 sec) 
Heartbeat CPU 0 instructions: 63000001 cycles: 100092850 heartbeat IPC: 0.657603 cumulative IPC: 0.546819 (Simulation time: 0 hr 30 min 28 sec) 
Heartbeat CPU 0 instructions: 64000000 cycles: 101612869 heartbeat IPC: 0.657886 cumulative IPC: 0.548533 (Simulation time: 0 hr 31 min 0 sec) 
Heartbeat CPU 0 instructions: 65000001 cycles: 103132357 heartbeat IPC: 0.658117 cumulative IPC: 0.550199 (Simulation time: 0 hr 31 min 30 sec) 
Heartbeat CPU 0 instructions: 66000000 cycles: 104650488 heartbeat IPC: 0.658704 cumulative IPC: 0.551822 (Simulation time: 0 hr 32 min 9 sec) 
Heartbeat CPU 0 instructions: 67000001 cycles: 106143844 heartbeat IPC: 0.669633 cumulative IPC: 0.553531 (Simulation time: 0 hr 32 min 44 sec) 
Heartbeat CPU 0 instructions: 68000000 cycles: 107635967 heartbeat IPC: 0.670185 cumulative IPC: 0.555197 (Simulation time: 0 hr 33 min 20 sec) 
Heartbeat CPU 0 instructions: 69000002 cycles: 109127749 heartbeat IPC: 0.670341 cumulative IPC: 0.556818 (Simulation time: 0 hr 33 min 50 sec) 
Heartbeat CPU 0 instructions: 70000001 cycles: 110622301 heartbeat IPC: 0.669096 cumulative IPC: 0.55838 (Simulation time: 0 hr 34 min 21 sec) 
Heartbeat CPU 0 instructions: 71000003 cycles: 112178975 heartbeat IPC: 0.642397 cumulative IPC: 0.55958 (Simulation time: 0 hr 34 min 50 sec) 
Heartbeat CPU 0 instructions: 72000000 cycles: 114335393 heartbeat IPC: 0.463731 cumulative IPC: 0.55772 (Simulation time: 0 hr 35 min 18 sec) 
Heartbeat CPU 0 instructions: 73000000 cycles: 116509763 heartbeat IPC: 0.459903 cumulative IPC: 0.555844 (Simulation time: 0 hr 35 min 43 sec) 
Heartbeat CPU 0 instructions: 74000000 cycles: 118670578 heartbeat IPC: 0.462788 cumulative IPC: 0.554103 (Simulation time: 0 hr 36 min 8 sec) 
Heartbeat CPU 0 instructions: 75000000 cycles: 120829433 heartbeat IPC: 0.463208 cumulative IPC: 0.552435 (Simulation time: 0 hr 36 min 39 sec) 
Heartbeat CPU 0 instructions: 76000000 cycles: 123006248 heartbeat IPC: 0.459387 cumulative IPC: 0.550745 (Simulation time: 0 hr 37 min 4 sec) 
Heartbeat CPU 0 instructions: 77000001 cycles: 124624079 heartbeat IPC: 0.618112 cumulative IPC: 0.551642 (Simulation time: 0 hr 37 min 37 sec) 
Heartbeat CPU 0 instructions: 78000000 cycles: 126129229 heartbeat IPC: 0.664385 cumulative IPC: 0.553022 (Simulation time: 0 hr 38 min 7 sec) 
Heartbeat CPU 0 instructions: 79000001 cycles: 127645703 heartbeat IPC: 0.659425 cumulative IPC: 0.554319 (Simulation time: 0 hr 38 min 42 sec) 
Heartbeat CPU 0 instructions: 80000000 cycles: 129125222 heartbeat IPC: 0.675895 cumulative IPC: 0.555747 (Simulation time: 0 hr 39 min 13 sec) 
Heartbeat CPU 0 instructions: 81000002 cycles: 130724097 heartbeat IPC: 0.625441 cumulative IPC: 0.55662 (Simulation time: 0 hr 39 min 42 sec) 
Heartbeat CPU 0 instructions: 82000003 cycles: 132868314 heartbeat IPC: 0.466371 cumulative IPC: 0.555128 (Simulation time: 0 hr 40 min 13 sec) 
Heartbeat CPU 0 instructions: 83000000 cycles: 135023439 heartbeat IPC: 0.464009 cumulative IPC: 0.553639 (Simulation time: 0 hr 40 min 41 sec) 
Heartbeat CPU 0 instructions: 84000000 cycles: 137177583 heartbeat IPC: 0.464222 cumulative IPC: 0.552202 (Simulation time: 0 hr 41 min 9 sec) 
Heartbeat CPU 0 instructions: 85000002 cycles: 139328676 heartbeat IPC: 0.464881 cumulative IPC: 0.550822 (Simulation time: 0 hr 41 min 37 sec) 
Heartbeat CPU 0 instructions: 86000002 cycles: 141506286 heartbeat IPC: 0.459219 cumulative IPC: 0.54938 (Simulation time: 0 hr 42 min 7 sec) 
Heartbeat CPU 0 instructions: 87000002 cycles: 143163092 heartbeat IPC: 0.603571 cumulative IPC: 0.550021 (Simulation time: 0 hr 42 min 47 sec) 
Heartbeat CPU 0 instructions: 88000000 cycles: 144745205 heartbeat IPC: 0.632065 cumulative IPC: 0.550938 (Simulation time: 0 hr 43 min 20 sec) 
Heartbeat CPU 0 instructions: 89000000 cycles: 146326809 heartbeat IPC: 0.63227 cumulative IPC: 0.551837 (Simulation time: 0 hr 44 min 2 sec) 
Heartbeat CPU 0 instructions: 90000000 cycles: 148239506 heartbeat IPC: 0.522822 cumulative IPC: 0.551454 (Simulation time: 0 hr 44 min 31 sec) 
Heartbeat CPU 0 instructions: 91000001 cycles: 151002952 heartbeat IPC: 0.361867 cumulative IPC: 0.54791 (Simulation time: 0 hr 45 min 0 sec) 
Heartbeat CPU 0 instructions: 92000000 cycles: 153822438 heartbeat IPC: 0.354674 cumulative IPC: 0.544294 (Simulation time: 0 hr 45 min 35 sec) 
Heartbeat CPU 0 instructions: 93000001 cycles: 156725619 heartbeat IPC: 0.34445 cumulative IPC: 0.540516 (Simulation time: 0 hr 46 min 2 sec) 
Heartbeat CPU 0 instructions: 94000001 cycles: 159490796 heartbeat IPC: 0.361641 cumulative IPC: 0.537352 (Simulation time: 0 hr 46 min 33 sec) 
Heartbeat CPU 0 instructions: 95000000 cycles: 161201924 heartbeat IPC: 0.584409 cumulative IPC: 0.537861 (Simulation time: 0 hr 47 min 5 sec) 
Heartbeat CPU 0 instructions: 96000000 cycles: 162788380 heartbeat IPC: 0.630336 cumulative IPC: 0.53878 (Simulation time: 0 hr 47 min 39 sec) 
Heartbeat CPU 0 instructions: 97000002 cycles: 164378769 heartbeat IPC: 0.628778 cumulative IPC: 0.539668 (Simulation time: 0 hr 48 min 22 sec) 
Heartbeat CPU 0 instructions: 98000001 cycles: 166578179 heartbeat IPC: 0.454667 cumulative IPC: 0.538524 (Simulation time: 0 hr 49 min 0 sec) 
Heartbeat CPU 0 instructions: 99000003 cycles: 169428218 heartbeat IPC: 0.350873 cumulative IPC: 0.535307 (Simulation time: 0 hr 49 min 31 sec) 
Heartbeat CPU 0 instructions: 100000000 cycles: 172299887 heartbeat IPC: 0.348229 cumulative IPC: 0.532131 (Simulation time: 0 hr 50 min 0 sec) 
Heartbeat CPU 0 instructions: 101000000 cycles: 175223172 heartbeat IPC: 0.342081 cumulative IPC: 0.528902 (Simulation time: 0 hr 50 min 28 sec) 
Heartbeat CPU 0 instructions: 102000000 cycles: 177601475 heartbeat IPC: 0.420468 cumulative IPC: 0.527423 (Simulation time: 0 hr 50 min 58 sec) 
Heartbeat CPU 0 instructions: 103000002 cycles: 179072340 heartbeat IPC: 0.679873 cumulative IPC: 0.528698 (Simulation time: 0 hr 51 min 32 sec) 
Heartbeat CPU 0 instructions: 104000000 cycles: 180543276 heartbeat IPC: 0.679838 cumulative IPC: 0.529952 (Simulation time: 0 hr 52 min 2 sec) 
Heartbeat CPU 0 instructions: 105000000 cycles: 182013267 heartbeat IPC: 0.680276 cumulative IPC: 0.531187 (Simulation time: 0 hr 52 min 32 sec) 
Heartbeat CPU 0 instructions: 106000003 cycles: 183484224 heartbeat IPC: 0.679832 cumulative IPC: 0.5324 (Simulation time: 0 hr 53 min 0 sec) 
Heartbeat CPU 0 instructions: 107000000 cycles: 185629266 heartbeat IPC: 0.46619 cumulative IPC: 0.531621 (Simulation time: 0 hr 53 min 24 sec) 
Heartbeat CPU 0 instructions: 108000000 cycles: 188122470 heartbeat IPC: 0.40109 cumulative IPC: 0.529862 (Simulation time: 0 hr 53 min 50 sec) 
Heartbeat CPU 0 instructions: 109000002 cycles: 190600376 heartbeat IPC: 0.403567 cumulative IPC: 0.528192 (Simulation time: 0 hr 54 min 16 sec) 
Heartbeat CPU 0 instructions: 110000002 cycles: 193091190 heartbeat IPC: 0.401475 cumulative IPC: 0.52653 (Simulation time: 0 hr 54 min 41 sec) 
Finished CPU 0 instructions: 100000000 cycles: 189922626 cummulative IPC: 0.52653 (Simulation time: 0 hr 54 min 41 sec) 

ChampSim completed all CPUs

Region of Interest Statistics

CPU 0 cummulative IPC: 0.52653 instructions: 100000000 cycles: 189922626
LLC TOTAL     ACCESS:    3801551  HIT:     171871  MISS:    3629680
LLC LOAD      ACCESS:     655912  HIT:       7739  MISS:     648173
LLC RFO       ACCESS:         20  HIT:          8  MISS:         12
LLC PREFETCH  ACCESS:    2133514  HIT:      52625  MISS:    2080889
LLC WRITEBACK ACCESS:    1012105  HIT:     111499  MISS:     900606
