
*** ChampSim Multicore Out-of-Order Simulator ***

Warmup Instructions: 10000000
Simulation Instructions: 100000000
Configuration: 2
Number of CPUs: 1
LLC sets: 2048
LLC ways: 16
Off-chip DRAM Channels: 1 Width: 64-bit Data Rate: 1600 MT/s

CPU 0 runs /datasets/cs240c-wi22-a00-public/data/Assignment2-gz/lbm_94B.trace.gz
CPU 0 L1D next line prefetcher
CPU 0 L2C IP-based stride prefetcher
Heartbeat CPU 0 instructions: 1000000 cycles: 422068 heartbeat IPC: 2.36929 cumulative IPC: 2.36929 (Simulation time: 0 hr 0 min 35 sec) 
Heartbeat CPU 0 instructions: 2000000 cycles: 812399 heartbeat IPC: 2.56193 cumulative IPC: 2.46184 (Simulation time: 0 hr 1 min 10 sec) 
Heartbeat CPU 0 instructions: 3000000 cycles: 1211540 heartbeat IPC: 2.50538 cumulative IPC: 2.47619 (Simulation time: 0 hr 1 min 41 sec) 
Heartbeat CPU 0 instructions: 4000000 cycles: 1631535 heartbeat IPC: 2.38098 cumulative IPC: 2.45168 (Simulation time: 0 hr 2 min 17 sec) 
Heartbeat CPU 0 instructions: 5000001 cycles: 2021787 heartbeat IPC: 2.56245 cumulative IPC: 2.47306 (Simulation time: 0 hr 2 min 53 sec) 
Heartbeat CPU 0 instructions: 6000000 cycles: 2422466 heartbeat IPC: 2.49576 cumulative IPC: 2.47681 (Simulation time: 0 hr 3 min 26 sec) 
Heartbeat CPU 0 instructions: 7000001 cycles: 2840617 heartbeat IPC: 2.39148 cumulative IPC: 2.46425 (Simulation time: 0 hr 4 min 1 sec) 
Heartbeat CPU 0 instructions: 8000000 cycles: 3230856 heartbeat IPC: 2.56253 cumulative IPC: 2.47612 (Simulation time: 0 hr 4 min 37 sec) 
Heartbeat CPU 0 instructions: 9000003 cycles: 3631892 heartbeat IPC: 2.49355 cumulative IPC: 2.47805 (Simulation time: 0 hr 5 min 12 sec) 
Heartbeat CPU 0 instructions: 10000000 cycles: 4048474 heartbeat IPC: 2.40048 cumulative IPC: 2.47007 (Simulation time: 0 hr 5 min 50 sec) 

Warmup complete CPU 0 instructions: 10000004 cycles: 4048475 (Simulation time: 0 hr 5 min 50 sec) 

Heartbeat CPU 0 instructions: 11000003 cycles: 5635538 heartbeat IPC: 0.630096 cumulative IPC: 0.630094 (Simulation time: 0 hr 6 min 30 sec) 
Heartbeat CPU 0 instructions: 12000000 cycles: 7338701 heartbeat IPC: 0.587141 cumulative IPC: 0.60786 (Simulation time: 0 hr 7 min 15 sec) 
Heartbeat CPU 0 instructions: 13000000 cycles: 9235698 heartbeat IPC: 0.527149 cumulative IPC: 0.578343 (Simulation time: 0 hr 7 min 54 sec) 
Heartbeat CPU 0 instructions: 14000000 cycles: 10789584 heartbeat IPC: 0.643548 cumulative IPC: 0.593374 (Simulation time: 0 hr 8 min 35 sec) 
Heartbeat CPU 0 instructions: 15000003 cycles: 12498636 heartbeat IPC: 0.585121 cumulative IPC: 0.591705 (Simulation time: 0 hr 9 min 18 sec) 
Heartbeat CPU 0 instructions: 16000000 cycles: 14378605 heartbeat IPC: 0.531922 cumulative IPC: 0.580825 (Simulation time: 0 hr 10 min 10 sec) 
Heartbeat CPU 0 instructions: 17000001 cycles: 15846674 heartbeat IPC: 0.681168 cumulative IPC: 0.593311 (Simulation time: 0 hr 10 min 51 sec) 
Heartbeat CPU 0 instructions: 18000001 cycles: 17409318 heartbeat IPC: 0.639941 cumulative IPC: 0.598764 (Simulation time: 0 hr 11 min 32 sec) 
Heartbeat CPU 0 instructions: 19000000 cycles: 19084898 heartbeat IPC: 0.596808 cumulative IPC: 0.598546 (Simulation time: 0 hr 12 min 16 sec) 
Heartbeat CPU 0 instructions: 20000000 cycles: 20419696 heartbeat IPC: 0.749177 cumulative IPC: 0.610828 (Simulation time: 0 hr 12 min 53 sec) 
Heartbeat CPU 0 instructions: 21000001 cycles: 21881183 heartbeat IPC: 0.684235 cumulative IPC: 0.616844 (Simulation time: 0 hr 13 min 32 sec) 
Heartbeat CPU 0 instructions: 22000000 cycles: 23527520 heartbeat IPC: 0.607408 cumulative IPC: 0.616046 (Simulation time: 0 hr 14 min 10 sec) 
Heartbeat CPU 0 instructions: 23000000 cycles: 24893972 heartbeat IPC: 0.731822 cumulative IPC: 0.623636 (Simulation time: 0 hr 14 min 48 sec) 
Heartbeat CPU 0 instructions: 24000000 cycles: 26292544 heartbeat IPC: 0.715015 cumulative IPC: 0.629381 (Simulation time: 0 hr 15 min 27 sec) 
Heartbeat CPU 0 instructions: 25000000 cycles: 27907694 heartbeat IPC: 0.619138 cumulative IPC: 0.628688 (Simulation time: 0 hr 16 min 9 sec) 
Heartbeat CPU 0 instructions: 26000000 cycles: 29252270 heartbeat IPC: 0.743729 cumulative IPC: 0.634825 (Simulation time: 0 hr 16 min 44 sec) 
Heartbeat CPU 0 instructions: 27000002 cycles: 30667848 heartbeat IPC: 0.706427 cumulative IPC: 0.638633 (Simulation time: 0 hr 17 min 22 sec) 
Heartbeat CPU 0 instructions: 28000000 cycles: 32322005 heartbeat IPC: 0.604536 cumulative IPC: 0.636638 (Simulation time: 0 hr 18 min 0 sec) 
Heartbeat CPU 0 instructions: 29000000 cycles: 33679568 heartbeat IPC: 0.736614 cumulative IPC: 0.641218 (Simulation time: 0 hr 18 min 32 sec) 
Heartbeat CPU 0 instructions: 30000000 cycles: 35104051 heartbeat IPC: 0.702009 cumulative IPC: 0.644007 (Simulation time: 0 hr 19 min 13 sec) 
Heartbeat CPU 0 instructions: 31000003 cycles: 36674242 heartbeat IPC: 0.636867 cumulative IPC: 0.643663 (Simulation time: 0 hr 19 min 51 sec) 
Heartbeat CPU 0 instructions: 32000000 cycles: 38029153 heartbeat IPC: 0.738054 cumulative IPC: 0.647427 (Simulation time: 0 hr 20 min 30 sec) 
Heartbeat CPU 0 instructions: 33000000 cycles: 39446737 heartbeat IPC: 0.705426 cumulative IPC: 0.649749 (Simulation time: 0 hr 21 min 12 sec) 
Heartbeat CPU 0 instructions: 34000003 cycles: 41001031 heartbeat IPC: 0.643381 cumulative IPC: 0.649481 (Simulation time: 0 hr 21 min 49 sec) 
Heartbeat CPU 0 instructions: 35000003 cycles: 42347723 heartbeat IPC: 0.74256 cumulative IPC: 0.652754 (Simulation time: 0 hr 22 min 25 sec) 
Heartbeat CPU 0 instructions: 36000000 cycles: 43729166 heartbeat IPC: 0.723879 cumulative IPC: 0.65523 (Simulation time: 0 hr 23 min 2 sec) 
Heartbeat CPU 0 instructions: 37000003 cycles: 45173929 heartbeat IPC: 0.692157 cumulative IPC: 0.656528 (Simulation time: 0 hr 23 min 41 sec) 
Heartbeat CPU 0 instructions: 38000001 cycles: 46566645 heartbeat IPC: 0.71802 cumulative IPC: 0.658542 (Simulation time: 0 hr 24 min 22 sec) 
Heartbeat CPU 0 instructions: 39000002 cycles: 47920877 heartbeat IPC: 0.738427 cumulative IPC: 0.661008 (Simulation time: 0 hr 25 min 0 sec) 
Heartbeat CPU 0 instructions: 40000000 cycles: 49406731 heartbeat IPC: 0.673012 cumulative IPC: 0.661401 (Simulation time: 0 hr 25 min 40 sec) 
Heartbeat CPU 0 instructions: 41000003 cycles: 50877356 heartbeat IPC: 0.679985 cumulative IPC: 0.661985 (Simulation time: 0 hr 26 min 26 sec) 
Heartbeat CPU 0 instructions: 42000000 cycles: 52215024 heartbeat IPC: 0.747567 cumulative IPC: 0.664361 (Simulation time: 0 hr 27 min 3 sec) 
Heartbeat CPU 0 instructions: 43000001 cycles: 53653693 heartbeat IPC: 0.695088 cumulative IPC: 0.665253 (Simulation time: 0 hr 27 min 38 sec) 
Heartbeat CPU 0 instructions: 44000000 cycles: 55124452 heartbeat IPC: 0.67992 cumulative IPC: 0.665675 (Simulation time: 0 hr 28 min 19 sec) 
Heartbeat CPU 0 instructions: 45000002 cycles: 56483780 heartbeat IPC: 0.735659 cumulative IPC: 0.667489 (Simulation time: 0 hr 28 min 54 sec) 
Heartbeat CPU 0 instructions: 46000003 cycles: 57893595 heartbeat IPC: 0.709314 cumulative IPC: 0.668584 (Simulation time: 0 hr 29 min 32 sec) 
Heartbeat CPU 0 instructions: 47000001 cycles: 59314055 heartbeat IPC: 0.703996 cumulative IPC: 0.669494 (Simulation time: 0 hr 30 min 8 sec) 
Heartbeat CPU 0 instructions: 48000000 cycles: 60637413 heartbeat IPC: 0.755653 cumulative IPC: 0.671509 (Simulation time: 0 hr 30 min 46 sec) 
Heartbeat CPU 0 instructions: 49000000 cycles: 62057885 heartbeat IPC: 0.703991 cumulative IPC: 0.672305 (Simulation time: 0 hr 31 min 26 sec) 
Heartbeat CPU 0 instructions: 50000003 cycles: 63494830 heartbeat IPC: 0.695923 cumulative IPC: 0.672876 (Simulation time: 0 hr 32 min 1 sec) 
Heartbeat CPU 0 instructions: 51000003 cycles: 64873591 heartbeat IPC: 0.725289 cumulative IPC: 0.674064 (Simulation time: 0 hr 32 min 40 sec) 
Heartbeat CPU 0 instructions: 52000000 cycles: 66230660 heartbeat IPC: 0.73688 cumulative IPC: 0.675435 (Simulation time: 0 hr 33 min 20 sec) 
Heartbeat CPU 0 instructions: 53000001 cycles: 67648221 heartbeat IPC: 0.705438 cumulative IPC: 0.676103 (Simulation time: 0 hr 34 min 1 sec) 
Heartbeat CPU 0 instructions: 54000000 cycles: 69012186 heartbeat IPC: 0.733156 cumulative IPC: 0.677301 (Simulation time: 0 hr 34 min 41 sec) 
Heartbeat CPU 0 instructions: 55000003 cycles: 70350091 heartbeat IPC: 0.747439 cumulative IPC: 0.678716 (Simulation time: 0 hr 35 min 21 sec) 
Heartbeat CPU 0 instructions: 56000000 cycles: 71781606 heartbeat IPC: 0.698559 cumulative IPC: 0.679136 (Simulation time: 0 hr 36 min 1 sec) 
Heartbeat CPU 0 instructions: 57000003 cycles: 73160614 heartbeat IPC: 0.725161 cumulative IPC: 0.680054 (Simulation time: 0 hr 36 min 36 sec) 
Heartbeat CPU 0 instructions: 58000003 cycles: 74541562 heartbeat IPC: 0.72414 cumulative IPC: 0.680918 (Simulation time: 0 hr 37 min 15 sec) 
Heartbeat CPU 0 instructions: 59000002 cycles: 75949737 heartbeat IPC: 0.710138 cumulative IPC: 0.68149 (Simulation time: 0 hr 37 min 52 sec) 
Heartbeat CPU 0 instructions: 60000000 cycles: 77334103 heartbeat IPC: 0.722351 cumulative IPC: 0.682262 (Simulation time: 0 hr 38 min 28 sec) 
Heartbeat CPU 0 instructions: 61000000 cycles: 78695306 heartbeat IPC: 0.734644 cumulative IPC: 0.683217 (Simulation time: 0 hr 39 min 4 sec) 
Heartbeat CPU 0 instructions: 62000000 cycles: 80036530 heartbeat IPC: 0.745588 cumulative IPC: 0.684318 (Simulation time: 0 hr 39 min 44 sec) 
Heartbeat CPU 0 instructions: 63000001 cycles: 81442001 heartbeat IPC: 0.711506 cumulative IPC: 0.684812 (Simulation time: 0 hr 40 min 21 sec) 
Heartbeat CPU 0 instructions: 64000000 cycles: 82810757 heartbeat IPC: 0.73059 cumulative IPC: 0.685607 (Simulation time: 0 hr 40 min 56 sec) 
Heartbeat CPU 0 instructions: 65000003 cycles: 84186233 heartbeat IPC: 0.727023 cumulative IPC: 0.686318 (Simulation time: 0 hr 41 min 32 sec) 
Heartbeat CPU 0 instructions: 66000002 cycles: 85600052 heartbeat IPC: 0.707303 cumulative IPC: 0.686682 (Simulation time: 0 hr 42 min 11 sec) 
Heartbeat CPU 0 instructions: 67000002 cycles: 86960771 heartbeat IPC: 0.734906 cumulative IPC: 0.687473 (Simulation time: 0 hr 42 min 50 sec) 
Heartbeat CPU 0 instructions: 68000000 cycles: 88331372 heartbeat IPC: 0.729605 cumulative IPC: 0.688159 (Simulation time: 0 hr 43 min 26 sec) 
Heartbeat CPU 0 instructions: 69000000 cycles: 89709873 heartbeat IPC: 0.725426 cumulative IPC: 0.688758 (Simulation time: 0 hr 44 min 6 sec) 
Heartbeat CPU 0 instructions: 70000001 cycles: 91174495 heartbeat IPC: 0.682771 cumulative IPC: 0.688658 (Simulation time: 0 hr 44 min 48 sec) 
Heartbeat CPU 0 instructions: 71000001 cycles: 92523232 heartbeat IPC: 0.741434 cumulative IPC: 0.689462 (Simulation time: 0 hr 45 min 26 sec) 
Heartbeat CPU 0 instructions: 72000000 cycles: 93867711 heartbeat IPC: 0.743782 cumulative IPC: 0.690275 (Simulation time: 0 hr 46 min 4 sec) 
Heartbeat CPU 0 instructions: 73000001 cycles: 95304325 heartbeat IPC: 0.696082 cumulative IPC: 0.690367 (Simulation time: 0 hr 46 min 44 sec) 
Heartbeat CPU 0 instructions: 74000001 cycles: 96701840 heartbeat IPC: 0.715556 cumulative IPC: 0.690747 (Simulation time: 0 hr 47 min 21 sec) 
Heartbeat CPU 0 instructions: 75000000 cycles: 98060989 heartbeat IPC: 0.735754 cumulative IPC: 0.691397 (Simulation time: 0 hr 47 min 59 sec) 
Heartbeat CPU 0 instructions: 76000000 cycles: 99491153 heartbeat IPC: 0.699221 cumulative IPC: 0.691514 (Simulation time: 0 hr 48 min 39 sec) 
Heartbeat CPU 0 instructions: 77000002 cycles: 100844535 heartbeat IPC: 0.738891 cumulative IPC: 0.692177 (Simulation time: 0 hr 49 min 18 sec) 
Heartbeat CPU 0 instructions: 78000003 cycles: 102214983 heartbeat IPC: 0.729689 cumulative IPC: 0.692701 (Simulation time: 0 hr 49 min 57 sec) 
Heartbeat CPU 0 instructions: 79000000 cycles: 103620937 heartbeat IPC: 0.711259 cumulative IPC: 0.692963 (Simulation time: 0 hr 50 min 33 sec) 
Heartbeat CPU 0 instructions: 80000000 cycles: 105005268 heartbeat IPC: 0.722371 cumulative IPC: 0.693366 (Simulation time: 0 hr 51 min 10 sec) 
Heartbeat CPU 0 instructions: 81000000 cycles: 106361315 heartbeat IPC: 0.737438 cumulative IPC: 0.69395 (Simulation time: 0 hr 51 min 45 sec) 
Heartbeat CPU 0 instructions: 82000000 cycles: 107735368 heartbeat IPC: 0.727774 cumulative IPC: 0.694398 (Simulation time: 0 hr 52 min 26 sec) 
Heartbeat CPU 0 instructions: 83000003 cycles: 109112388 heartbeat IPC: 0.726208 cumulative IPC: 0.694815 (Simulation time: 0 hr 53 min 2 sec) 
Heartbeat CPU 0 instructions: 84000000 cycles: 110476822 heartbeat IPC: 0.732902 cumulative IPC: 0.695303 (Simulation time: 0 hr 53 min 43 sec) 
Heartbeat CPU 0 instructions: 85000001 cycles: 111838327 heartbeat IPC: 0.734482 cumulative IPC: 0.695798 (Simulation time: 0 hr 54 min 19 sec) 
Heartbeat CPU 0 instructions: 86000003 cycles: 113242331 heartbeat IPC: 0.71225 cumulative IPC: 0.69601 (Simulation time: 0 hr 54 min 57 sec) 
Heartbeat CPU 0 instructions: 87000000 cycles: 114625378 heartbeat IPC: 0.723039 cumulative IPC: 0.696348 (Simulation time: 0 hr 55 min 29 sec) 
Heartbeat CPU 0 instructions: 88000000 cycles: 115966443 heartbeat IPC: 0.745676 cumulative IPC: 0.696939 (Simulation time: 0 hr 56 min 3 sec) 
Heartbeat CPU 0 instructions: 89000003 cycles: 117323302 heartbeat IPC: 0.736998 cumulative IPC: 0.697419 (Simulation time: 0 hr 56 min 35 sec) 
Heartbeat CPU 0 instructions: 90000003 cycles: 118755547 heartbeat IPC: 0.698205 cumulative IPC: 0.697429 (Simulation time: 0 hr 57 min 9 sec) 
Heartbeat CPU 0 instructions: 91000002 cycles: 120079532 heartbeat IPC: 0.755295 cumulative IPC: 0.698089 (Simulation time: 0 hr 57 min 41 sec) 
Heartbeat CPU 0 instructions: 92000000 cycles: 121429968 heartbeat IPC: 0.7405 cumulative IPC: 0.698577 (Simulation time: 0 hr 58 min 16 sec) 
Heartbeat CPU 0 instructions: 93000003 cycles: 122860209 heartbeat IPC: 0.699185 cumulative IPC: 0.698584 (Simulation time: 0 hr 58 min 55 sec) 
Heartbeat CPU 0 instructions: 94000001 cycles: 124204436 heartbeat IPC: 0.743921 cumulative IPC: 0.699091 (Simulation time: 0 hr 59 min 31 sec) 
Heartbeat CPU 0 instructions: 95000003 cycles: 125558043 heartbeat IPC: 0.738768 cumulative IPC: 0.699533 (Simulation time: 1 hr 0 min 8 sec) 
Heartbeat CPU 0 instructions: 96000000 cycles: 126910173 heartbeat IPC: 0.739572 cumulative IPC: 0.699974 (Simulation time: 1 hr 0 min 41 sec) 
Heartbeat CPU 0 instructions: 97000000 cycles: 128325594 heartbeat IPC: 0.706504 cumulative IPC: 0.700048 (Simulation time: 1 hr 1 min 17 sec) 
Heartbeat CPU 0 instructions: 98000002 cycles: 129656182 heartbeat IPC: 0.751549 cumulative IPC: 0.700594 (Simulation time: 1 hr 1 min 52 sec) 
Heartbeat CPU 0 instructions: 99000001 cycles: 131007606 heartbeat IPC: 0.739959 cumulative IPC: 0.701013 (Simulation time: 1 hr 2 min 25 sec) 
Heartbeat CPU 0 instructions: 100000000 cycles: 132389244 heartbeat IPC: 0.723778 cumulative IPC: 0.701258 (Simulation time: 1 hr 2 min 53 sec) 
Heartbeat CPU 0 instructions: 101000003 cycles: 133738028 heartbeat IPC: 0.741411 cumulative IPC: 0.701676 (Simulation time: 1 hr 3 min 26 sec) 
Heartbeat CPU 0 instructions: 102000002 cycles: 135107674 heartbeat IPC: 0.730115 cumulative IPC: 0.701973 (Simulation time: 1 hr 3 min 58 sec) 
Heartbeat CPU 0 instructions: 103000000 cycles: 136529618 heartbeat IPC: 0.703261 cumulative IPC: 0.701987 (Simulation time: 1 hr 4 min 26 sec) 
Heartbeat CPU 0 instructions: 104000000 cycles: 137875005 heartbeat IPC: 0.743281 cumulative IPC: 0.702402 (Simulation time: 1 hr 4 min 53 sec) 
Heartbeat CPU 0 instructions: 105000002 cycles: 139240982 heartbeat IPC: 0.732078 cumulative IPC: 0.702702 (Simulation time: 1 hr 5 min 18 sec) 
Heartbeat CPU 0 instructions: 106000001 cycles: 140592214 heartbeat IPC: 0.740065 cumulative IPC: 0.703071 (Simulation time: 1 hr 5 min 41 sec) 
Heartbeat CPU 0 instructions: 107000000 cycles: 142012772 heartbeat IPC: 0.703948 cumulative IPC: 0.70308 (Simulation time: 1 hr 6 min 5 sec) 
Heartbeat CPU 0 instructions: 108000000 cycles: 143401707 heartbeat IPC: 0.719976 cumulative IPC: 0.703249 (Simulation time: 1 hr 6 min 29 sec) 
Heartbeat CPU 0 instructions: 109000002 cycles: 144772307 heartbeat IPC: 0.729609 cumulative IPC: 0.703506 (Simulation time: 1 hr 6 min 52 sec) 
Heartbeat CPU 0 instructions: 110000000 cycles: 146192837 heartbeat IPC: 0.703961 cumulative IPC: 0.70351 (Simulation time: 1 hr 7 min 15 sec) 
Finished CPU 0 instructions: 100000000 cycles: 142144363 cummulative IPC: 0.70351 (Simulation time: 1 hr 7 min 15 sec) 

ChampSim completed all CPUs

Region of Interest Statistics

CPU 0 cummulative IPC: 0.70351 instructions: 100000000 cycles: 142144363
LLC TOTAL     ACCESS:    5490950  HIT:    1557926  MISS:    3933024
LLC LOAD      ACCESS:     391158  HIT:         55  MISS:     391103
LLC RFO       ACCESS:    2345797  HIT:     473823  MISS:    1871974
LLC PREFETCH  ACCESS:     407879  HIT:          4  MISS:     407875
LLC WRITEBACK ACCESS:    2346116  HIT:    1084044  MISS:    1262072
