
*** ChampSim Multicore Out-of-Order Simulator ***

Warmup Instructions: 10000000
Simulation Instructions: 100000000
Configuration: 2
Number of CPUs: 1
LLC sets: 2048
LLC ways: 16
Off-chip DRAM Channels: 1 Width: 64-bit Data Rate: 1600 MT/s

CPU 0 runs /datasets/cs240c-wi22-a00-public/data/Assignment2-gz/perlbench_53B.trace.gz
CPU 0 L1D next line prefetcher
CPU 0 L2C IP-based stride prefetcher
Heartbeat CPU 0 instructions: 1000000 cycles: 615818 heartbeat IPC: 1.62386 cumulative IPC: 1.62386 (Simulation time: 0 hr 0 min 39 sec) 
Heartbeat CPU 0 instructions: 2000001 cycles: 1252991 heartbeat IPC: 1.56943 cumulative IPC: 1.59618 (Simulation time: 0 hr 1 min 23 sec) 
Heartbeat CPU 0 instructions: 3000002 cycles: 1908493 heartbeat IPC: 1.52555 cumulative IPC: 1.57192 (Simulation time: 0 hr 2 min 6 sec) 
Heartbeat CPU 0 instructions: 4000000 cycles: 2523919 heartbeat IPC: 1.62489 cumulative IPC: 1.58484 (Simulation time: 0 hr 2 min 42 sec) 
Heartbeat CPU 0 instructions: 5000001 cycles: 3151954 heartbeat IPC: 1.59227 cumulative IPC: 1.58632 (Simulation time: 0 hr 3 min 28 sec) 
Heartbeat CPU 0 instructions: 6000001 cycles: 3767499 heartbeat IPC: 1.62458 cumulative IPC: 1.59257 (Simulation time: 0 hr 4 min 14 sec) 
Heartbeat CPU 0 instructions: 7000002 cycles: 4390376 heartbeat IPC: 1.60546 cumulative IPC: 1.5944 (Simulation time: 0 hr 5 min 3 sec) 
Heartbeat CPU 0 instructions: 8000000 cycles: 5000758 heartbeat IPC: 1.63832 cumulative IPC: 1.59976 (Simulation time: 0 hr 5 min 49 sec) 
Heartbeat CPU 0 instructions: 9000000 cycles: 5652484 heartbeat IPC: 1.53439 cumulative IPC: 1.59222 (Simulation time: 0 hr 6 min 29 sec) 
Heartbeat CPU 0 instructions: 10000001 cycles: 6287601 heartbeat IPC: 1.57451 cumulative IPC: 1.59043 (Simulation time: 0 hr 7 min 11 sec) 

Warmup complete CPU 0 instructions: 10000001 cycles: 6287601 (Simulation time: 0 hr 7 min 11 sec) 

Heartbeat CPU 0 instructions: 11000000 cycles: 9208215 heartbeat IPC: 0.342393 cumulative IPC: 0.342393 (Simulation time: 0 hr 7 min 52 sec) 
Heartbeat CPU 0 instructions: 12000000 cycles: 12087850 heartbeat IPC: 0.347266 cumulative IPC: 0.344813 (Simulation time: 0 hr 8 min 41 sec) 
Heartbeat CPU 0 instructions: 13000000 cycles: 14443213 heartbeat IPC: 0.424563 cumulative IPC: 0.367845 (Simulation time: 0 hr 9 min 33 sec) 
Heartbeat CPU 0 instructions: 14000000 cycles: 16964191 heartbeat IPC: 0.396671 cumulative IPC: 0.374651 (Simulation time: 0 hr 10 min 25 sec) 
Heartbeat CPU 0 instructions: 15000001 cycles: 19729196 heartbeat IPC: 0.361663 cumulative IPC: 0.37198 (Simulation time: 0 hr 11 min 18 sec) 
Heartbeat CPU 0 instructions: 16000000 cycles: 22405347 heartbeat IPC: 0.373671 cumulative IPC: 0.37226 (Simulation time: 0 hr 12 min 2 sec) 
Heartbeat CPU 0 instructions: 17000001 cycles: 25089638 heartbeat IPC: 0.372538 cumulative IPC: 0.3723 (Simulation time: 0 hr 12 min 47 sec) 
Heartbeat CPU 0 instructions: 18000002 cycles: 27956358 heartbeat IPC: 0.348831 cumulative IPC: 0.369195 (Simulation time: 0 hr 13 min 39 sec) 
Heartbeat CPU 0 instructions: 19000000 cycles: 30812448 heartbeat IPC: 0.350128 cumulative IPC: 0.366975 (Simulation time: 0 hr 14 min 25 sec) 
Heartbeat CPU 0 instructions: 20000000 cycles: 33675146 heartbeat IPC: 0.349321 cumulative IPC: 0.365129 (Simulation time: 0 hr 15 min 16 sec) 
Heartbeat CPU 0 instructions: 21000000 cycles: 36041260 heartbeat IPC: 0.422634 cumulative IPC: 0.369702 (Simulation time: 0 hr 16 min 14 sec) 
Heartbeat CPU 0 instructions: 22000000 cycles: 38121780 heartbeat IPC: 0.480649 cumulative IPC: 0.376953 (Simulation time: 0 hr 17 min 2 sec) 
Heartbeat CPU 0 instructions: 23000001 cycles: 40059318 heartbeat IPC: 0.516119 cumulative IPC: 0.384937 (Simulation time: 0 hr 17 min 46 sec) 
Heartbeat CPU 0 instructions: 24000000 cycles: 42458137 heartbeat IPC: 0.416871 cumulative IPC: 0.387055 (Simulation time: 0 hr 18 min 34 sec) 
Heartbeat CPU 0 instructions: 25000000 cycles: 44470066 heartbeat IPC: 0.497035 cumulative IPC: 0.39285 (Simulation time: 0 hr 19 min 20 sec) 
Heartbeat CPU 0 instructions: 26000001 cycles: 46455085 heartbeat IPC: 0.503774 cumulative IPC: 0.398332 (Simulation time: 0 hr 20 min 1 sec) 
Heartbeat CPU 0 instructions: 27000002 cycles: 48752177 heartbeat IPC: 0.435333 cumulative IPC: 0.400334 (Simulation time: 0 hr 20 min 47 sec) 
Heartbeat CPU 0 instructions: 28000000 cycles: 51328355 heartbeat IPC: 0.388171 cumulative IPC: 0.399638 (Simulation time: 0 hr 21 min 41 sec) 
Heartbeat CPU 0 instructions: 29000000 cycles: 53654376 heartbeat IPC: 0.429919 cumulative IPC: 0.401125 (Simulation time: 0 hr 22 min 39 sec) 
Heartbeat CPU 0 instructions: 30000000 cycles: 55700432 heartbeat IPC: 0.488745 cumulative IPC: 0.404753 (Simulation time: 0 hr 23 min 30 sec) 
Heartbeat CPU 0 instructions: 31000001 cycles: 57688226 heartbeat IPC: 0.503071 cumulative IPC: 0.408555 (Simulation time: 0 hr 24 min 16 sec) 
Heartbeat CPU 0 instructions: 32000000 cycles: 59685968 heartbeat IPC: 0.500565 cumulative IPC: 0.411998 (Simulation time: 0 hr 24 min 54 sec) 
Heartbeat CPU 0 instructions: 33000003 cycles: 62154558 heartbeat IPC: 0.405091 cumulative IPC: 0.411692 (Simulation time: 0 hr 25 min 37 sec) 
Heartbeat CPU 0 instructions: 34000000 cycles: 64868496 heartbeat IPC: 0.368467 cumulative IPC: 0.40969 (Simulation time: 0 hr 26 min 22 sec) 
Heartbeat CPU 0 instructions: 35000000 cycles: 67434024 heartbeat IPC: 0.389783 cumulative IPC: 0.408855 (Simulation time: 0 hr 27 min 9 sec) 
Heartbeat CPU 0 instructions: 36000000 cycles: 70232410 heartbeat IPC: 0.357349 cumulative IPC: 0.406601 (Simulation time: 0 hr 27 min 58 sec) 
Heartbeat CPU 0 instructions: 37000002 cycles: 73087686 heartbeat IPC: 0.35023 cumulative IPC: 0.404191 (Simulation time: 0 hr 28 min 48 sec) 
Heartbeat CPU 0 instructions: 38000000 cycles: 75995067 heartbeat IPC: 0.343951 cumulative IPC: 0.401679 (Simulation time: 0 hr 29 min 33 sec) 
Heartbeat CPU 0 instructions: 39000001 cycles: 78673009 heartbeat IPC: 0.373421 cumulative IPC: 0.400633 (Simulation time: 0 hr 30 min 25 sec) 
Heartbeat CPU 0 instructions: 40000000 cycles: 81284478 heartbeat IPC: 0.382926 cumulative IPC: 0.400017 (Simulation time: 0 hr 31 min 18 sec) 
Heartbeat CPU 0 instructions: 41000002 cycles: 84174123 heartbeat IPC: 0.346064 cumulative IPC: 0.398015 (Simulation time: 0 hr 32 min 9 sec) 
Heartbeat CPU 0 instructions: 42000000 cycles: 86784728 heartbeat IPC: 0.383052 cumulative IPC: 0.39753 (Simulation time: 0 hr 33 min 0 sec) 
Heartbeat CPU 0 instructions: 43000002 cycles: 89638510 heartbeat IPC: 0.350413 cumulative IPC: 0.395917 (Simulation time: 0 hr 33 min 52 sec) 
Heartbeat CPU 0 instructions: 44000000 cycles: 92321249 heartbeat IPC: 0.372753 cumulative IPC: 0.395194 (Simulation time: 0 hr 34 min 48 sec) 
Heartbeat CPU 0 instructions: 45000001 cycles: 93786705 heartbeat IPC: 0.682382 cumulative IPC: 0.400004 (Simulation time: 0 hr 35 min 26 sec) 
Heartbeat CPU 0 instructions: 46000000 cycles: 95814851 heartbeat IPC: 0.493061 cumulative IPC: 0.402112 (Simulation time: 0 hr 36 min 12 sec) 
Heartbeat CPU 0 instructions: 47000002 cycles: 97730254 heartbeat IPC: 0.522084 cumulative IPC: 0.404625 (Simulation time: 0 hr 36 min 51 sec) 
Heartbeat CPU 0 instructions: 48000000 cycles: 99650469 heartbeat IPC: 0.520774 cumulative IPC: 0.407014 (Simulation time: 0 hr 37 min 33 sec) 
Heartbeat CPU 0 instructions: 49000000 cycles: 102006563 heartbeat IPC: 0.424431 cumulative IPC: 0.407443 (Simulation time: 0 hr 38 min 25 sec) 
Heartbeat CPU 0 instructions: 50000002 cycles: 103877218 heartbeat IPC: 0.534573 cumulative IPC: 0.40988 (Simulation time: 0 hr 39 min 9 sec) 
Heartbeat CPU 0 instructions: 51000000 cycles: 105808955 heartbeat IPC: 0.517668 cumulative IPC: 0.411972 (Simulation time: 0 hr 39 min 52 sec) 
Heartbeat CPU 0 instructions: 52000000 cycles: 107723960 heartbeat IPC: 0.522192 cumulative IPC: 0.414053 (Simulation time: 0 hr 40 min 32 sec) 
Heartbeat CPU 0 instructions: 53000002 cycles: 109675136 heartbeat IPC: 0.512512 cumulative IPC: 0.415911 (Simulation time: 0 hr 41 min 16 sec) 
Heartbeat CPU 0 instructions: 54000000 cycles: 112581925 heartbeat IPC: 0.344022 cumulative IPC: 0.413945 (Simulation time: 0 hr 42 min 1 sec) 
Heartbeat CPU 0 instructions: 55000000 cycles: 115081093 heartbeat IPC: 0.400133 cumulative IPC: 0.413628 (Simulation time: 0 hr 42 min 50 sec) 
Heartbeat CPU 0 instructions: 56000000 cycles: 117895047 heartbeat IPC: 0.355372 cumulative IPC: 0.412159 (Simulation time: 0 hr 43 min 39 sec) 
Heartbeat CPU 0 instructions: 57000001 cycles: 120899210 heartbeat IPC: 0.332872 cumulative IPC: 0.410081 (Simulation time: 0 hr 44 min 24 sec) 
Heartbeat CPU 0 instructions: 58000003 cycles: 123870842 heartbeat IPC: 0.336516 cumulative IPC: 0.408221 (Simulation time: 0 hr 45 min 20 sec) 
Heartbeat CPU 0 instructions: 59000002 cycles: 126695086 heartbeat IPC: 0.354077 cumulative IPC: 0.406951 (Simulation time: 0 hr 46 min 10 sec) 
Heartbeat CPU 0 instructions: 60000000 cycles: 129471651 heartbeat IPC: 0.360157 cumulative IPC: 0.405897 (Simulation time: 0 hr 46 min 55 sec) 
Heartbeat CPU 0 instructions: 61000002 cycles: 132119089 heartbeat IPC: 0.377724 cumulative IPC: 0.405304 (Simulation time: 0 hr 47 min 45 sec) 
Heartbeat CPU 0 instructions: 62000002 cycles: 134823759 heartbeat IPC: 0.369731 cumulative IPC: 0.404555 (Simulation time: 0 hr 48 min 38 sec) 
Heartbeat CPU 0 instructions: 63000001 cycles: 137511467 heartbeat IPC: 0.372064 cumulative IPC: 0.40389 (Simulation time: 0 hr 49 min 21 sec) 
Heartbeat CPU 0 instructions: 64000000 cycles: 140188036 heartbeat IPC: 0.373612 cumulative IPC: 0.403285 (Simulation time: 0 hr 50 min 14 sec) 
Heartbeat CPU 0 instructions: 65000003 cycles: 142843220 heartbeat IPC: 0.376623 cumulative IPC: 0.402766 (Simulation time: 0 hr 51 min 3 sec) 
Heartbeat CPU 0 instructions: 66000001 cycles: 145490398 heartbeat IPC: 0.37776 cumulative IPC: 0.402291 (Simulation time: 0 hr 51 min 49 sec) 
Heartbeat CPU 0 instructions: 67000001 cycles: 148109303 heartbeat IPC: 0.381839 cumulative IPC: 0.401913 (Simulation time: 0 hr 52 min 34 sec) 
Heartbeat CPU 0 instructions: 68000000 cycles: 150800521 heartbeat IPC: 0.371579 cumulative IPC: 0.401348 (Simulation time: 0 hr 53 min 22 sec) 
Heartbeat CPU 0 instructions: 69000001 cycles: 153460723 heartbeat IPC: 0.375912 cumulative IPC: 0.400888 (Simulation time: 0 hr 54 min 13 sec) 
Heartbeat CPU 0 instructions: 70000001 cycles: 156094314 heartbeat IPC: 0.37971 cumulative IPC: 0.400516 (Simulation time: 0 hr 54 min 59 sec) 
Heartbeat CPU 0 instructions: 71000001 cycles: 158819181 heartbeat IPC: 0.36699 cumulative IPC: 0.399917 (Simulation time: 0 hr 55 min 40 sec) 
Heartbeat CPU 0 instructions: 72000000 cycles: 161428333 heartbeat IPC: 0.383266 cumulative IPC: 0.399637 (Simulation time: 0 hr 56 min 30 sec) 
Heartbeat CPU 0 instructions: 73000002 cycles: 164090719 heartbeat IPC: 0.375604 cumulative IPC: 0.399232 (Simulation time: 0 hr 57 min 11 sec) 
Heartbeat CPU 0 instructions: 74000001 cycles: 166787710 heartbeat IPC: 0.370783 cumulative IPC: 0.398754 (Simulation time: 0 hr 57 min 56 sec) 
Heartbeat CPU 0 instructions: 75000001 cycles: 169473046 heartbeat IPC: 0.372393 cumulative IPC: 0.39832 (Simulation time: 0 hr 58 min 42 sec) 
Heartbeat CPU 0 instructions: 76000000 cycles: 172139748 heartbeat IPC: 0.374995 cumulative IPC: 0.397945 (Simulation time: 0 hr 59 min 21 sec) 
Heartbeat CPU 0 instructions: 77000002 cycles: 174836374 heartbeat IPC: 0.370835 cumulative IPC: 0.397511 (Simulation time: 1 hr 0 min 0 sec) 
Heartbeat CPU 0 instructions: 78000000 cycles: 177511882 heartbeat IPC: 0.37376 cumulative IPC: 0.39714 (Simulation time: 1 hr 0 min 44 sec) 
Heartbeat CPU 0 instructions: 79000002 cycles: 180193385 heartbeat IPC: 0.372926 cumulative IPC: 0.396767 (Simulation time: 1 hr 1 min 30 sec) 
Heartbeat CPU 0 instructions: 80000000 cycles: 182849337 heartbeat IPC: 0.376512 cumulative IPC: 0.396462 (Simulation time: 1 hr 2 min 10 sec) 
Heartbeat CPU 0 instructions: 81000000 cycles: 185475649 heartbeat IPC: 0.380762 cumulative IPC: 0.396232 (Simulation time: 1 hr 2 min 48 sec) 
Heartbeat CPU 0 instructions: 82000002 cycles: 188175851 heartbeat IPC: 0.370343 cumulative IPC: 0.395847 (Simulation time: 1 hr 3 min 22 sec) 
Heartbeat CPU 0 instructions: 83000000 cycles: 190845923 heartbeat IPC: 0.374521 cumulative IPC: 0.395539 (Simulation time: 1 hr 3 min 54 sec) 
Heartbeat CPU 0 instructions: 84000000 cycles: 193529179 heartbeat IPC: 0.372682 cumulative IPC: 0.395211 (Simulation time: 1 hr 4 min 25 sec) 
Heartbeat CPU 0 instructions: 85000001 cycles: 196214641 heartbeat IPC: 0.372376 cumulative IPC: 0.394888 (Simulation time: 1 hr 4 min 57 sec) 
Heartbeat CPU 0 instructions: 86000000 cycles: 198710348 heartbeat IPC: 0.400688 cumulative IPC: 0.394964 (Simulation time: 1 hr 5 min 36 sec) 
Heartbeat CPU 0 instructions: 87000000 cycles: 200841668 heartbeat IPC: 0.469193 cumulative IPC: 0.395777 (Simulation time: 1 hr 6 min 11 sec) 
Heartbeat CPU 0 instructions: 88000000 cycles: 202839104 heartbeat IPC: 0.500642 cumulative IPC: 0.396843 (Simulation time: 1 hr 6 min 39 sec) 
Heartbeat CPU 0 instructions: 89000001 cycles: 204915228 heartbeat IPC: 0.481667 cumulative IPC: 0.397729 (Simulation time: 1 hr 7 min 4 sec) 
Heartbeat CPU 0 instructions: 90000000 cycles: 207574810 heartbeat IPC: 0.375999 cumulative IPC: 0.397442 (Simulation time: 1 hr 7 min 34 sec) 
Heartbeat CPU 0 instructions: 91000001 cycles: 210347032 heartbeat IPC: 0.360722 cumulative IPC: 0.396943 (Simulation time: 1 hr 8 min 7 sec) 
Heartbeat CPU 0 instructions: 92000000 cycles: 213049434 heartbeat IPC: 0.370041 cumulative IPC: 0.396592 (Simulation time: 1 hr 8 min 34 sec) 
Heartbeat CPU 0 instructions: 93000000 cycles: 215731428 heartbeat IPC: 0.372857 cumulative IPC: 0.396288 (Simulation time: 1 hr 8 min 59 sec) 
Heartbeat CPU 0 instructions: 94000002 cycles: 218400012 heartbeat IPC: 0.374731 cumulative IPC: 0.396016 (Simulation time: 1 hr 9 min 24 sec) 
Heartbeat CPU 0 instructions: 95000000 cycles: 221046720 heartbeat IPC: 0.377827 cumulative IPC: 0.395792 (Simulation time: 1 hr 9 min 51 sec) 
Heartbeat CPU 0 instructions: 96000000 cycles: 223733567 heartbeat IPC: 0.372183 cumulative IPC: 0.395501 (Simulation time: 1 hr 10 min 17 sec) 
Heartbeat CPU 0 instructions: 97000000 cycles: 226392254 heartbeat IPC: 0.376126 cumulative IPC: 0.395267 (Simulation time: 1 hr 10 min 41 sec) 
Heartbeat CPU 0 instructions: 98000000 cycles: 229033163 heartbeat IPC: 0.378657 cumulative IPC: 0.39507 (Simulation time: 1 hr 11 min 2 sec) 
Heartbeat CPU 0 instructions: 99000002 cycles: 231665696 heartbeat IPC: 0.379863 cumulative IPC: 0.394892 (Simulation time: 1 hr 11 min 22 sec) 
Heartbeat CPU 0 instructions: 100000000 cycles: 234310139 heartbeat IPC: 0.378151 cumulative IPC: 0.394698 (Simulation time: 1 hr 11 min 42 sec) 
Heartbeat CPU 0 instructions: 101000002 cycles: 236986743 heartbeat IPC: 0.373608 cumulative IPC: 0.394453 (Simulation time: 1 hr 12 min 1 sec) 
Heartbeat CPU 0 instructions: 102000000 cycles: 239648252 heartbeat IPC: 0.375726 cumulative IPC: 0.39424 (Simulation time: 1 hr 12 min 18 sec) 
Heartbeat CPU 0 instructions: 103000000 cycles: 242288286 heartbeat IPC: 0.378783 cumulative IPC: 0.394067 (Simulation time: 1 hr 12 min 37 sec) 
Heartbeat CPU 0 instructions: 104000000 cycles: 244953176 heartbeat IPC: 0.37525 cumulative IPC: 0.393857 (Simulation time: 1 hr 12 min 57 sec) 
Heartbeat CPU 0 instructions: 105000003 cycles: 247134812 heartbeat IPC: 0.458373 cumulative IPC: 0.394441 (Simulation time: 1 hr 13 min 13 sec) 
Heartbeat CPU 0 instructions: 106000000 cycles: 249111952 heartbeat IPC: 0.50578 cumulative IPC: 0.395348 (Simulation time: 1 hr 13 min 27 sec) 
Heartbeat CPU 0 instructions: 107000003 cycles: 251088141 heartbeat IPC: 0.506026 cumulative IPC: 0.396241 (Simulation time: 1 hr 13 min 40 sec) 
Heartbeat CPU 0 instructions: 108000000 cycles: 253804952 heartbeat IPC: 0.368077 cumulative IPC: 0.395932 (Simulation time: 1 hr 13 min 55 sec) 
Heartbeat CPU 0 instructions: 109000001 cycles: 256508248 heartbeat IPC: 0.369919 cumulative IPC: 0.395651 (Simulation time: 1 hr 14 min 10 sec) 
Heartbeat CPU 0 instructions: 110000000 cycles: 259019557 heartbeat IPC: 0.398198 cumulative IPC: 0.395676 (Simulation time: 1 hr 14 min 24 sec) 
Finished CPU 0 instructions: 100000000 cycles: 252731957 cummulative IPC: 0.395676 (Simulation time: 1 hr 14 min 24 sec) 

ChampSim completed all CPUs

Region of Interest Statistics

CPU 0 cummulative IPC: 0.395676 instructions: 100000000 cycles: 252731957
LLC TOTAL     ACCESS:     656658  HIT:     485964  MISS:     170694
LLC LOAD      ACCESS:     310859  HIT:     303518  MISS:       7341
LLC RFO       ACCESS:      30799  HIT:      27041  MISS:       3758
LLC PREFETCH  ACCESS:     212725  HIT:      58280  MISS:     154445
LLC WRITEBACK ACCESS:     102275  HIT:      97125  MISS:       5150
