
*** ChampSim Multicore Out-of-Order Simulator ***

Warmup Instructions: 10000000
Simulation Instructions: 100000000
Configuration: 2
Number of CPUs: 1
LLC sets: 2048
LLC ways: 16
Off-chip DRAM Channels: 1 Width: 64-bit Data Rate: 1600 MT/s

CPU 0 runs /datasets/cs240c-wi22-a00-public/data/Assignment2-gz/soplex_66B.trace.gz
CPU 0 L1D next line prefetcher
CPU 0 L2C IP-based stride prefetcher
Heartbeat CPU 0 instructions: 1000003 cycles: 415045 heartbeat IPC: 2.40938 cumulative IPC: 2.40938 (Simulation time: 0 hr 0 min 46 sec) 
Heartbeat CPU 0 instructions: 2000003 cycles: 837178 heartbeat IPC: 2.36892 cumulative IPC: 2.38898 (Simulation time: 0 hr 1 min 40 sec) 
Heartbeat CPU 0 instructions: 3000003 cycles: 1242143 heartbeat IPC: 2.46935 cumulative IPC: 2.41518 (Simulation time: 0 hr 2 min 31 sec) 
Heartbeat CPU 0 instructions: 4000000 cycles: 1626256 heartbeat IPC: 2.60339 cumulative IPC: 2.45964 (Simulation time: 0 hr 3 min 14 sec) 
Heartbeat CPU 0 instructions: 5000000 cycles: 2040643 heartbeat IPC: 2.4132 cumulative IPC: 2.45021 (Simulation time: 0 hr 4 min 2 sec) 
Heartbeat CPU 0 instructions: 6000000 cycles: 2514265 heartbeat IPC: 2.11139 cumulative IPC: 2.38638 (Simulation time: 0 hr 4 min 53 sec) 
Heartbeat CPU 0 instructions: 7000002 cycles: 2886808 heartbeat IPC: 2.68426 cumulative IPC: 2.42482 (Simulation time: 0 hr 5 min 48 sec) 
Heartbeat CPU 0 instructions: 8000000 cycles: 3312550 heartbeat IPC: 2.34884 cumulative IPC: 2.41506 (Simulation time: 0 hr 6 min 51 sec) 
Heartbeat CPU 0 instructions: 9000001 cycles: 3751135 heartbeat IPC: 2.28006 cumulative IPC: 2.39927 (Simulation time: 0 hr 7 min 44 sec) 
Heartbeat CPU 0 instructions: 10000002 cycles: 4163322 heartbeat IPC: 2.42609 cumulative IPC: 2.40193 (Simulation time: 0 hr 8 min 38 sec) 

Warmup complete CPU 0 instructions: 10000002 cycles: 4163322 (Simulation time: 0 hr 8 min 38 sec) 

Heartbeat CPU 0 instructions: 11000001 cycles: 7272411 heartbeat IPC: 0.321637 cumulative IPC: 0.321637 (Simulation time: 0 hr 9 min 33 sec) 
Heartbeat CPU 0 instructions: 12000000 cycles: 8620183 heartbeat IPC: 0.741965 cumulative IPC: 0.448746 (Simulation time: 0 hr 10 min 3 sec) 
Heartbeat CPU 0 instructions: 13000001 cycles: 11235841 heartbeat IPC: 0.382313 cumulative IPC: 0.424177 (Simulation time: 0 hr 10 min 47 sec) 
Heartbeat CPU 0 instructions: 14000002 cycles: 13664095 heartbeat IPC: 0.411819 cumulative IPC: 0.421018 (Simulation time: 0 hr 11 min 28 sec) 
Heartbeat CPU 0 instructions: 15000002 cycles: 16168124 heartbeat IPC: 0.399356 cumulative IPC: 0.4165 (Simulation time: 0 hr 12 min 4 sec) 
Heartbeat CPU 0 instructions: 16000000 cycles: 18952937 heartbeat IPC: 0.35909 cumulative IPC: 0.40569 (Simulation time: 0 hr 12 min 45 sec) 
Heartbeat CPU 0 instructions: 17000001 cycles: 21112143 heartbeat IPC: 0.463134 cumulative IPC: 0.413008 (Simulation time: 0 hr 13 min 33 sec) 
Heartbeat CPU 0 instructions: 18000000 cycles: 23089903 heartbeat IPC: 0.505622 cumulative IPC: 0.422686 (Simulation time: 0 hr 14 min 14 sec) 
Heartbeat CPU 0 instructions: 19000002 cycles: 26461451 heartbeat IPC: 0.2966 cumulative IPC: 0.403621 (Simulation time: 0 hr 15 min 3 sec) 
Heartbeat CPU 0 instructions: 20000000 cycles: 27799246 heartbeat IPC: 0.747497 cumulative IPC: 0.423085 (Simulation time: 0 hr 15 min 31 sec) 
Heartbeat CPU 0 instructions: 21000000 cycles: 29977485 heartbeat IPC: 0.459086 cumulative IPC: 0.426123 (Simulation time: 0 hr 16 min 3 sec) 
Heartbeat CPU 0 instructions: 22000000 cycles: 32590897 heartbeat IPC: 0.382642 cumulative IPC: 0.422125 (Simulation time: 0 hr 16 min 47 sec) 
Heartbeat CPU 0 instructions: 23000000 cycles: 35072385 heartbeat IPC: 0.402984 cumulative IPC: 0.420589 (Simulation time: 0 hr 17 min 20 sec) 
Heartbeat CPU 0 instructions: 24000000 cycles: 37616321 heartbeat IPC: 0.393092 cumulative IPC: 0.418498 (Simulation time: 0 hr 17 min 55 sec) 
Heartbeat CPU 0 instructions: 25000003 cycles: 39837665 heartbeat IPC: 0.450179 cumulative IPC: 0.42047 (Simulation time: 0 hr 18 min 43 sec) 
Heartbeat CPU 0 instructions: 26000001 cycles: 41995770 heartbeat IPC: 0.463369 cumulative IPC: 0.422917 (Simulation time: 0 hr 19 min 27 sec) 
Heartbeat CPU 0 instructions: 27000002 cycles: 45356869 heartbeat IPC: 0.297522 cumulative IPC: 0.412686 (Simulation time: 0 hr 20 min 15 sec) 
Heartbeat CPU 0 instructions: 28000000 cycles: 46696103 heartbeat IPC: 0.746694 cumulative IPC: 0.423203 (Simulation time: 0 hr 20 min 45 sec) 
Heartbeat CPU 0 instructions: 29000002 cycles: 48487898 heartbeat IPC: 0.558101 cumulative IPC: 0.428656 (Simulation time: 0 hr 21 min 24 sec) 
Heartbeat CPU 0 instructions: 30000000 cycles: 51233269 heartbeat IPC: 0.364249 cumulative IPC: 0.4249 (Simulation time: 0 hr 22 min 9 sec) 
Heartbeat CPU 0 instructions: 31000001 cycles: 53733555 heartbeat IPC: 0.399955 cumulative IPC: 0.423641 (Simulation time: 0 hr 22 min 44 sec) 
Heartbeat CPU 0 instructions: 32000000 cycles: 56184814 heartbeat IPC: 0.407953 cumulative IPC: 0.422902 (Simulation time: 0 hr 23 min 20 sec) 
Heartbeat CPU 0 instructions: 33000001 cycles: 59298153 heartbeat IPC: 0.321199 cumulative IPC: 0.417159 (Simulation time: 0 hr 24 min 7 sec) 
Heartbeat CPU 0 instructions: 34000003 cycles: 61291518 heartbeat IPC: 0.501665 cumulative IPC: 0.420108 (Simulation time: 0 hr 24 min 52 sec) 
Heartbeat CPU 0 instructions: 35000003 cycles: 64247859 heartbeat IPC: 0.338256 cumulative IPC: 0.41608 (Simulation time: 0 hr 25 min 36 sec) 
Heartbeat CPU 0 instructions: 36000000 cycles: 65582191 heartbeat IPC: 0.749436 cumulative IPC: 0.423323 (Simulation time: 0 hr 26 min 4 sec) 
Heartbeat CPU 0 instructions: 37000000 cycles: 68107605 heartbeat IPC: 0.395975 cumulative IPC: 0.422243 (Simulation time: 0 hr 26 min 53 sec) 
Heartbeat CPU 0 instructions: 38000001 cycles: 70387893 heartbeat IPC: 0.438542 cumulative IPC: 0.422804 (Simulation time: 0 hr 27 min 32 sec) 
Heartbeat CPU 0 instructions: 39000003 cycles: 72856774 heartbeat IPC: 0.405043 cumulative IPC: 0.422165 (Simulation time: 0 hr 28 min 7 sec) 
Heartbeat CPU 0 instructions: 40000000 cycles: 75555878 heartbeat IPC: 0.370492 cumulative IPC: 0.420212 (Simulation time: 0 hr 28 min 46 sec) 
Heartbeat CPU 0 instructions: 41000001 cycles: 77631247 heartbeat IPC: 0.481843 cumulative IPC: 0.421953 (Simulation time: 0 hr 29 min 35 sec) 
Heartbeat CPU 0 instructions: 42000003 cycles: 79576639 heartbeat IPC: 0.514036 cumulative IPC: 0.424328 (Simulation time: 0 hr 30 min 17 sec) 
Heartbeat CPU 0 instructions: 43000000 cycles: 82885310 heartbeat IPC: 0.302235 cumulative IPC: 0.419197 (Simulation time: 0 hr 31 min 6 sec) 
Heartbeat CPU 0 instructions: 44000000 cycles: 84221244 heartbeat IPC: 0.74854 cumulative IPC: 0.424692 (Simulation time: 0 hr 31 min 34 sec) 
Heartbeat CPU 0 instructions: 45000003 cycles: 86379669 heartbeat IPC: 0.463302 cumulative IPC: 0.425706 (Simulation time: 0 hr 32 min 9 sec) 
Heartbeat CPU 0 instructions: 46000003 cycles: 88971360 heartbeat IPC: 0.385848 cumulative IPC: 0.424488 (Simulation time: 0 hr 32 min 47 sec) 
Heartbeat CPU 0 instructions: 47000001 cycles: 91425500 heartbeat IPC: 0.407474 cumulative IPC: 0.42401 (Simulation time: 0 hr 33 min 21 sec) 
Heartbeat CPU 0 instructions: 48000000 cycles: 93926790 heartbeat IPC: 0.399793 cumulative IPC: 0.423335 (Simulation time: 0 hr 33 min 54 sec) 
Heartbeat CPU 0 instructions: 49000000 cycles: 97313513 heartbeat IPC: 0.295271 cumulative IPC: 0.418679 (Simulation time: 0 hr 34 min 48 sec) 
Heartbeat CPU 0 instructions: 50000003 cycles: 103157240 heartbeat IPC: 0.171124 cumulative IPC: 0.404065 (Simulation time: 0 hr 35 min 49 sec) 
Heartbeat CPU 0 instructions: 51000002 cycles: 105608533 heartbeat IPC: 0.407948 cumulative IPC: 0.404159 (Simulation time: 0 hr 36 min 41 sec) 
Heartbeat CPU 0 instructions: 52000000 cycles: 109619279 heartbeat IPC: 0.24933 cumulative IPC: 0.398271 (Simulation time: 0 hr 37 min 34 sec) 
Heartbeat CPU 0 instructions: 53000003 cycles: 112333222 heartbeat IPC: 0.368469 cumulative IPC: 0.397523 (Simulation time: 0 hr 38 min 26 sec) 
Heartbeat CPU 0 instructions: 54000000 cycles: 114859001 heartbeat IPC: 0.395916 cumulative IPC: 0.397486 (Simulation time: 0 hr 39 min 14 sec) 
Heartbeat CPU 0 instructions: 55000002 cycles: 118526657 heartbeat IPC: 0.272654 cumulative IPC: 0.393483 (Simulation time: 0 hr 39 min 55 sec) 
Heartbeat CPU 0 instructions: 56000000 cycles: 122129156 heartbeat IPC: 0.277585 cumulative IPC: 0.389943 (Simulation time: 0 hr 40 min 40 sec) 
Heartbeat CPU 0 instructions: 57000003 cycles: 124755266 heartbeat IPC: 0.380792 cumulative IPC: 0.389744 (Simulation time: 0 hr 41 min 20 sec) 
Heartbeat CPU 0 instructions: 58000002 cycles: 126968020 heartbeat IPC: 0.451925 cumulative IPC: 0.390865 (Simulation time: 0 hr 42 min 3 sec) 
Heartbeat CPU 0 instructions: 59000002 cycles: 128505846 heartbeat IPC: 0.650269 cumulative IPC: 0.394073 (Simulation time: 0 hr 42 min 49 sec) 
Heartbeat CPU 0 instructions: 60000000 cycles: 129699586 heartbeat IPC: 0.837702 cumulative IPC: 0.398291 (Simulation time: 0 hr 43 min 23 sec) 
Heartbeat CPU 0 instructions: 61000002 cycles: 132480727 heartbeat IPC: 0.359565 cumulative IPC: 0.397452 (Simulation time: 0 hr 44 min 11 sec) 
Heartbeat CPU 0 instructions: 62000002 cycles: 135195225 heartbeat IPC: 0.368392 cumulative IPC: 0.39685 (Simulation time: 0 hr 44 min 58 sec) 
Heartbeat CPU 0 instructions: 63000002 cycles: 137291525 heartbeat IPC: 0.477031 cumulative IPC: 0.398112 (Simulation time: 0 hr 45 min 41 sec) 
Heartbeat CPU 0 instructions: 64000000 cycles: 139648505 heartbeat IPC: 0.424271 cumulative IPC: 0.398568 (Simulation time: 0 hr 46 min 19 sec) 
Heartbeat CPU 0 instructions: 65000000 cycles: 143751145 heartbeat IPC: 0.243745 cumulative IPC: 0.394017 (Simulation time: 0 hr 47 min 18 sec) 
Heartbeat CPU 0 instructions: 66000001 cycles: 145120055 heartbeat IPC: 0.730509 cumulative IPC: 0.397285 (Simulation time: 0 hr 47 min 44 sec) 
Heartbeat CPU 0 instructions: 67000000 cycles: 146504488 heartbeat IPC: 0.722317 cumulative IPC: 0.400446 (Simulation time: 0 hr 48 min 16 sec) 
Heartbeat CPU 0 instructions: 68000000 cycles: 149917326 heartbeat IPC: 0.293011 cumulative IPC: 0.397931 (Simulation time: 0 hr 49 min 6 sec) 
Heartbeat CPU 0 instructions: 69000000 cycles: 152550032 heartbeat IPC: 0.379837 cumulative IPC: 0.39761 (Simulation time: 0 hr 49 min 40 sec) 
Heartbeat CPU 0 instructions: 70000003 cycles: 155059230 heartbeat IPC: 0.398535 cumulative IPC: 0.397625 (Simulation time: 0 hr 50 min 17 sec) 
Heartbeat CPU 0 instructions: 71000000 cycles: 157476441 heartbeat IPC: 0.413699 cumulative IPC: 0.397879 (Simulation time: 0 hr 51 min 2 sec) 
Heartbeat CPU 0 instructions: 72000000 cycles: 160110977 heartbeat IPC: 0.379573 cumulative IPC: 0.397569 (Simulation time: 0 hr 51 min 45 sec) 
Heartbeat CPU 0 instructions: 73000002 cycles: 162950949 heartbeat IPC: 0.352117 cumulative IPC: 0.396756 (Simulation time: 0 hr 52 min 38 sec) 
Heartbeat CPU 0 instructions: 74000000 cycles: 164944231 heartbeat IPC: 0.501684 cumulative IPC: 0.398057 (Simulation time: 0 hr 53 min 11 sec) 
Heartbeat CPU 0 instructions: 75000002 cycles: 166323023 heartbeat IPC: 0.725274 cumulative IPC: 0.400839 (Simulation time: 0 hr 53 min 35 sec) 
Heartbeat CPU 0 instructions: 76000000 cycles: 169491301 heartbeat IPC: 0.315628 cumulative IPC: 0.399206 (Simulation time: 0 hr 54 min 18 sec) 
Heartbeat CPU 0 instructions: 77000000 cycles: 171783877 heartbeat IPC: 0.436191 cumulative IPC: 0.399712 (Simulation time: 0 hr 54 min 52 sec) 
Heartbeat CPU 0 instructions: 78000003 cycles: 174158001 heartbeat IPC: 0.421209 cumulative IPC: 0.400013 (Simulation time: 0 hr 55 min 23 sec) 
Heartbeat CPU 0 instructions: 79000001 cycles: 177213685 heartbeat IPC: 0.327258 cumulative IPC: 0.398728 (Simulation time: 0 hr 56 min 9 sec) 
Heartbeat CPU 0 instructions: 80000000 cycles: 179746325 heartbeat IPC: 0.394845 cumulative IPC: 0.398672 (Simulation time: 0 hr 56 min 46 sec) 
Heartbeat CPU 0 instructions: 81000003 cycles: 182802989 heartbeat IPC: 0.327155 cumulative IPC: 0.397448 (Simulation time: 0 hr 57 min 31 sec) 
Heartbeat CPU 0 instructions: 82000000 cycles: 184554769 heartbeat IPC: 0.570846 cumulative IPC: 0.399132 (Simulation time: 0 hr 57 min 57 sec) 
Heartbeat CPU 0 instructions: 83000001 cycles: 185888239 heartbeat IPC: 0.749924 cumulative IPC: 0.401706 (Simulation time: 0 hr 58 min 21 sec) 
Heartbeat CPU 0 instructions: 84000000 cycles: 189032261 heartbeat IPC: 0.318064 cumulative IPC: 0.400284 (Simulation time: 0 hr 59 min 4 sec) 
Heartbeat CPU 0 instructions: 85000000 cycles: 191376241 heartbeat IPC: 0.426625 cumulative IPC: 0.400613 (Simulation time: 0 hr 59 min 37 sec) 
Heartbeat CPU 0 instructions: 86000000 cycles: 193896739 heartbeat IPC: 0.396747 cumulative IPC: 0.400562 (Simulation time: 1 hr 0 min 9 sec) 
Heartbeat CPU 0 instructions: 87000000 cycles: 196720533 heartbeat IPC: 0.354133 cumulative IPC: 0.399881 (Simulation time: 1 hr 0 min 58 sec) 
Heartbeat CPU 0 instructions: 88000000 cycles: 198933016 heartbeat IPC: 0.451981 cumulative IPC: 0.400473 (Simulation time: 1 hr 1 min 34 sec) 
Heartbeat CPU 0 instructions: 89000001 cycles: 202303864 heartbeat IPC: 0.296662 cumulative IPC: 0.398707 (Simulation time: 1 hr 2 min 19 sec) 
Heartbeat CPU 0 instructions: 90000002 cycles: 203653546 heartbeat IPC: 0.740916 cumulative IPC: 0.401022 (Simulation time: 1 hr 2 min 41 sec) 
Heartbeat CPU 0 instructions: 91000000 cycles: 205066125 heartbeat IPC: 0.707924 cumulative IPC: 0.40318 (Simulation time: 1 hr 3 min 4 sec) 
Heartbeat CPU 0 instructions: 92000000 cycles: 208080750 heartbeat IPC: 0.331716 cumulative IPC: 0.402124 (Simulation time: 1 hr 3 min 39 sec) 
Heartbeat CPU 0 instructions: 93000000 cycles: 210600434 heartbeat IPC: 0.396875 cumulative IPC: 0.402059 (Simulation time: 1 hr 4 min 3 sec) 
Heartbeat CPU 0 instructions: 94000001 cycles: 213016807 heartbeat IPC: 0.413844 cumulative IPC: 0.402196 (Simulation time: 1 hr 4 min 29 sec) 
Heartbeat CPU 0 instructions: 95000003 cycles: 216063520 heartbeat IPC: 0.328223 cumulative IPC: 0.401132 (Simulation time: 1 hr 5 min 2 sec) 
Heartbeat CPU 0 instructions: 96000000 cycles: 218004959 heartbeat IPC: 0.51508 cumulative IPC: 0.402167 (Simulation time: 1 hr 5 min 28 sec) 
Heartbeat CPU 0 instructions: 97000003 cycles: 221171655 heartbeat IPC: 0.315787 cumulative IPC: 0.400906 (Simulation time: 1 hr 5 min 56 sec) 
Heartbeat CPU 0 instructions: 98000003 cycles: 222507073 heartbeat IPC: 0.748829 cumulative IPC: 0.403034 (Simulation time: 1 hr 6 min 13 sec) 
Heartbeat CPU 0 instructions: 99000000 cycles: 224774196 heartbeat IPC: 0.441086 cumulative IPC: 0.403425 (Simulation time: 1 hr 6 min 33 sec) 
Heartbeat CPU 0 instructions: 100000000 cycles: 227261836 heartbeat IPC: 0.401987 cumulative IPC: 0.403409 (Simulation time: 1 hr 6 min 55 sec) 
Heartbeat CPU 0 instructions: 101000001 cycles: 229692902 heartbeat IPC: 0.411343 cumulative IPC: 0.403495 (Simulation time: 1 hr 7 min 15 sec) 
Heartbeat CPU 0 instructions: 102000000 cycles: 232261256 heartbeat IPC: 0.389354 cumulative IPC: 0.403336 (Simulation time: 1 hr 7 min 35 sec) 
Heartbeat CPU 0 instructions: 103000002 cycles: 235272222 heartbeat IPC: 0.33212 cumulative IPC: 0.402408 (Simulation time: 1 hr 8 min 2 sec) 
Heartbeat CPU 0 instructions: 104000000 cycles: 237500352 heartbeat IPC: 0.448806 cumulative IPC: 0.402851 (Simulation time: 1 hr 8 min 26 sec) 
Heartbeat CPU 0 instructions: 105000000 cycles: 239924698 heartbeat IPC: 0.412482 cumulative IPC: 0.40295 (Simulation time: 1 hr 8 min 48 sec) 
Heartbeat CPU 0 instructions: 106000001 cycles: 241257130 heartbeat IPC: 0.750508 cumulative IPC: 0.404903 (Simulation time: 1 hr 9 min 2 sec) 
Heartbeat CPU 0 instructions: 107000001 cycles: 244147842 heartbeat IPC: 0.345936 cumulative IPC: 0.404193 (Simulation time: 1 hr 9 min 23 sec) 
Heartbeat CPU 0 instructions: 108000000 cycles: 246288360 heartbeat IPC: 0.467176 cumulative IPC: 0.40475 (Simulation time: 1 hr 9 min 42 sec) 
Heartbeat CPU 0 instructions: 109000003 cycles: 248732747 heartbeat IPC: 0.409102 cumulative IPC: 0.404793 (Simulation time: 1 hr 9 min 58 sec) 
Heartbeat CPU 0 instructions: 110000001 cycles: 251620847 heartbeat IPC: 0.346248 cumulative IPC: 0.40411 (Simulation time: 1 hr 10 min 22 sec) 
Finished CPU 0 instructions: 100000003 cycles: 247457526 cummulative IPC: 0.40411 (Simulation time: 1 hr 10 min 22 sec) 

ChampSim completed all CPUs

Region of Interest Statistics

CPU 0 cummulative IPC: 0.40411 instructions: 100000003 cycles: 247457526
LLC TOTAL     ACCESS:    6600641  HIT:    3014035  MISS:    3586606
LLC LOAD      ACCESS:    1697651  HIT:     780198  MISS:     917453
LLC RFO       ACCESS:     658482  HIT:     295300  MISS:     363182
LLC PREFETCH  ACCESS:    2683875  HIT:     910648  MISS:    1773227
LLC WRITEBACK ACCESS:    1560633  HIT:    1027889  MISS:     532744
