
*** ChampSim Multicore Out-of-Order Simulator ***

Warmup Instructions: 10000000
Simulation Instructions: 100000000
Configuration: 2
Number of CPUs: 1
LLC sets: 2048
LLC ways: 16
Off-chip DRAM Channels: 1 Width: 64-bit Data Rate: 1600 MT/s

CPU 0 runs /datasets/cs240c-wi22-a00-public/data/Assignment2-gz/GemsFDTD_109B.trace.gz
CPU 0 L1D next line prefetcher
CPU 0 L2C IP-based stride prefetcher
Heartbeat CPU 0 instructions: 1000002 cycles: 579772 heartbeat IPC: 1.72482 cumulative IPC: 1.72482 (Simulation time: 0 hr 0 min 46 sec) 
Heartbeat CPU 0 instructions: 2000001 cycles: 1159546 heartbeat IPC: 1.72481 cumulative IPC: 1.72481 (Simulation time: 0 hr 1 min 36 sec) 
Heartbeat CPU 0 instructions: 3000000 cycles: 1738734 heartbeat IPC: 1.72655 cumulative IPC: 1.72539 (Simulation time: 0 hr 2 min 25 sec) 
Heartbeat CPU 0 instructions: 4000000 cycles: 2317739 heartbeat IPC: 1.7271 cumulative IPC: 1.72582 (Simulation time: 0 hr 3 min 11 sec) 
Heartbeat CPU 0 instructions: 5000000 cycles: 2897590 heartbeat IPC: 1.72458 cumulative IPC: 1.72557 (Simulation time: 0 hr 4 min 1 sec) 
Heartbeat CPU 0 instructions: 6000002 cycles: 3478306 heartbeat IPC: 1.72202 cumulative IPC: 1.72498 (Simulation time: 0 hr 4 min 48 sec) 
Heartbeat CPU 0 instructions: 7000001 cycles: 4058971 heartbeat IPC: 1.72216 cumulative IPC: 1.72458 (Simulation time: 0 hr 5 min 38 sec) 
Heartbeat CPU 0 instructions: 8000000 cycles: 4639158 heartbeat IPC: 1.72358 cumulative IPC: 1.72445 (Simulation time: 0 hr 6 min 24 sec) 
Heartbeat CPU 0 instructions: 9000002 cycles: 5219313 heartbeat IPC: 1.72368 cumulative IPC: 1.72437 (Simulation time: 0 hr 7 min 14 sec) 
Heartbeat CPU 0 instructions: 10000001 cycles: 5799492 heartbeat IPC: 1.7236 cumulative IPC: 1.72429 (Simulation time: 0 hr 7 min 58 sec) 

Warmup complete CPU 0 instructions: 10000001 cycles: 5799492 (Simulation time: 0 hr 7 min 58 sec) 

Heartbeat CPU 0 instructions: 11000002 cycles: 6848237 heartbeat IPC: 0.953522 cumulative IPC: 0.953522 (Simulation time: 0 hr 8 min 44 sec) 
Heartbeat CPU 0 instructions: 12000000 cycles: 7895695 heartbeat IPC: 0.95469 cumulative IPC: 0.954106 (Simulation time: 0 hr 9 min 28 sec) 
Heartbeat CPU 0 instructions: 13000001 cycles: 8981667 heartbeat IPC: 0.920835 cumulative IPC: 0.942751 (Simulation time: 0 hr 10 min 17 sec) 
Heartbeat CPU 0 instructions: 14000002 cycles: 10045581 heartbeat IPC: 0.939927 cumulative IPC: 0.942044 (Simulation time: 0 hr 11 min 1 sec) 
Heartbeat CPU 0 instructions: 15000000 cycles: 11113455 heartbeat IPC: 0.936438 cumulative IPC: 0.940917 (Simulation time: 0 hr 11 min 54 sec) 
Heartbeat CPU 0 instructions: 16000000 cycles: 12178240 heartbeat IPC: 0.939157 cumulative IPC: 0.940623 (Simulation time: 0 hr 12 min 44 sec) 
Heartbeat CPU 0 instructions: 17000000 cycles: 13266829 heartbeat IPC: 0.91862 cumulative IPC: 0.937416 (Simulation time: 0 hr 13 min 32 sec) 
Heartbeat CPU 0 instructions: 18000003 cycles: 14314387 heartbeat IPC: 0.954604 cumulative IPC: 0.93953 (Simulation time: 0 hr 14 min 17 sec) 
Heartbeat CPU 0 instructions: 19000001 cycles: 15386925 heartbeat IPC: 0.932366 cumulative IPC: 0.938729 (Simulation time: 0 hr 15 min 4 sec) 
Heartbeat CPU 0 instructions: 20000000 cycles: 16548823 heartbeat IPC: 0.86066 cumulative IPC: 0.93029 (Simulation time: 0 hr 15 min 47 sec) 
Heartbeat CPU 0 instructions: 21000001 cycles: 17822669 heartbeat IPC: 0.785025 cumulative IPC: 0.9149 (Simulation time: 0 hr 16 min 35 sec) 
Heartbeat CPU 0 instructions: 22000001 cycles: 21349007 heartbeat IPC: 0.28358 cumulative IPC: 0.771728 (Simulation time: 0 hr 17 min 30 sec) 
Heartbeat CPU 0 instructions: 23000001 cycles: 22614719 heartbeat IPC: 0.790069 cumulative IPC: 0.773109 (Simulation time: 0 hr 18 min 16 sec) 
Heartbeat CPU 0 instructions: 24000000 cycles: 26299957 heartbeat IPC: 0.271353 cumulative IPC: 0.682911 (Simulation time: 0 hr 19 min 7 sec) 
Heartbeat CPU 0 instructions: 25000003 cycles: 27547087 heartbeat IPC: 0.801843 cumulative IPC: 0.689732 (Simulation time: 0 hr 19 min 49 sec) 
Heartbeat CPU 0 instructions: 26000000 cycles: 31240221 heartbeat IPC: 0.270772 cumulative IPC: 0.628913 (Simulation time: 0 hr 20 min 41 sec) 
Heartbeat CPU 0 instructions: 27000000 cycles: 32454901 heartbeat IPC: 0.823262 cumulative IPC: 0.637769 (Simulation time: 0 hr 21 min 28 sec) 
Heartbeat CPU 0 instructions: 28000000 cycles: 36010121 heartbeat IPC: 0.281277 cumulative IPC: 0.595817 (Simulation time: 0 hr 22 min 17 sec) 
Heartbeat CPU 0 instructions: 29000000 cycles: 37229741 heartbeat IPC: 0.819928 cumulative IPC: 0.604513 (Simulation time: 0 hr 23 min 6 sec) 
Heartbeat CPU 0 instructions: 30000003 cycles: 38582522 heartbeat IPC: 0.73922 cumulative IPC: 0.610072 (Simulation time: 0 hr 23 min 45 sec) 
Heartbeat CPU 0 instructions: 31000002 cycles: 39749562 heartbeat IPC: 0.856868 cumulative IPC: 0.618555 (Simulation time: 0 hr 24 min 32 sec) 
Heartbeat CPU 0 instructions: 32000000 cycles: 41060524 heartbeat IPC: 0.762797 cumulative IPC: 0.623918 (Simulation time: 0 hr 25 min 11 sec) 
Heartbeat CPU 0 instructions: 33000003 cycles: 42222981 heartbeat IPC: 0.860249 cumulative IPC: 0.631461 (Simulation time: 0 hr 25 min 54 sec) 
Heartbeat CPU 0 instructions: 34000002 cycles: 43539135 heartbeat IPC: 0.759789 cumulative IPC: 0.635936 (Simulation time: 0 hr 26 min 32 sec) 
Heartbeat CPU 0 instructions: 35000003 cycles: 44719958 heartbeat IPC: 0.846868 cumulative IPC: 0.642336 (Simulation time: 0 hr 27 min 12 sec) 
Heartbeat CPU 0 instructions: 36000000 cycles: 46085351 heartbeat IPC: 0.732388 cumulative IPC: 0.645388 (Simulation time: 0 hr 27 min 53 sec) 
Heartbeat CPU 0 instructions: 37000000 cycles: 47414847 heartbeat IPC: 0.752165 cumulative IPC: 0.648799 (Simulation time: 0 hr 28 min 45 sec) 
Heartbeat CPU 0 instructions: 38000001 cycles: 48744385 heartbeat IPC: 0.752142 cumulative IPC: 0.651998 (Simulation time: 0 hr 29 min 33 sec) 
Heartbeat CPU 0 instructions: 39000000 cycles: 50073774 heartbeat IPC: 0.752225 cumulative IPC: 0.655008 (Simulation time: 0 hr 30 min 20 sec) 
Heartbeat CPU 0 instructions: 40000000 cycles: 51403314 heartbeat IPC: 0.75214 cumulative IPC: 0.65784 (Simulation time: 0 hr 31 min 12 sec) 
Heartbeat CPU 0 instructions: 41000000 cycles: 52671500 heartbeat IPC: 0.788528 cumulative IPC: 0.661376 (Simulation time: 0 hr 31 min 49 sec) 
Heartbeat CPU 0 instructions: 42000000 cycles: 54000981 heartbeat IPC: 0.752173 cumulative IPC: 0.66388 (Simulation time: 0 hr 32 min 40 sec) 
Heartbeat CPU 0 instructions: 43000002 cycles: 55330650 heartbeat IPC: 0.752068 cumulative IPC: 0.666247 (Simulation time: 0 hr 33 min 26 sec) 
Heartbeat CPU 0 instructions: 44000000 cycles: 56660151 heartbeat IPC: 0.75216 cumulative IPC: 0.668493 (Simulation time: 0 hr 34 min 11 sec) 
Heartbeat CPU 0 instructions: 45000001 cycles: 57989476 heartbeat IPC: 0.752262 cumulative IPC: 0.670627 (Simulation time: 0 hr 34 min 56 sec) 
Heartbeat CPU 0 instructions: 46000003 cycles: 59364005 heartbeat IPC: 0.727523 cumulative IPC: 0.672087 (Simulation time: 0 hr 35 min 39 sec) 
Heartbeat CPU 0 instructions: 47000001 cycles: 60492726 heartbeat IPC: 0.885957 cumulative IPC: 0.6765 (Simulation time: 0 hr 36 min 16 sec) 
Heartbeat CPU 0 instructions: 48000000 cycles: 61868861 heartbeat IPC: 0.726672 cumulative IPC: 0.677732 (Simulation time: 0 hr 36 min 53 sec) 
Heartbeat CPU 0 instructions: 49000003 cycles: 71471658 heartbeat IPC: 0.104137 cumulative IPC: 0.593859 (Simulation time: 0 hr 38 min 12 sec) 
Heartbeat CPU 0 instructions: 50000001 cycles: 73299067 heartbeat IPC: 0.547222 cumulative IPC: 0.592596 (Simulation time: 0 hr 39 min 9 sec) 
Heartbeat CPU 0 instructions: 51000001 cycles: 74935526 heartbeat IPC: 0.611076 cumulative IPC: 0.593034 (Simulation time: 0 hr 40 min 7 sec) 
Heartbeat CPU 0 instructions: 52000000 cycles: 76559101 heartbeat IPC: 0.615924 cumulative IPC: 0.593559 (Simulation time: 0 hr 41 min 0 sec) 
Heartbeat CPU 0 instructions: 53000000 cycles: 78178906 heartbeat IPC: 0.617358 cumulative IPC: 0.594092 (Simulation time: 0 hr 41 min 56 sec) 
Heartbeat CPU 0 instructions: 54000001 cycles: 79778049 heartbeat IPC: 0.625336 cumulative IPC: 0.594767 (Simulation time: 0 hr 42 min 51 sec) 
Heartbeat CPU 0 instructions: 55000000 cycles: 81367058 heartbeat IPC: 0.629322 cumulative IPC: 0.595494 (Simulation time: 0 hr 43 min 40 sec) 
Heartbeat CPU 0 instructions: 56000000 cycles: 82975746 heartbeat IPC: 0.621625 cumulative IPC: 0.596038 (Simulation time: 0 hr 44 min 25 sec) 
Heartbeat CPU 0 instructions: 57000002 cycles: 84612119 heartbeat IPC: 0.611109 cumulative IPC: 0.596351 (Simulation time: 0 hr 45 min 21 sec) 
Heartbeat CPU 0 instructions: 58000002 cycles: 86215035 heartbeat IPC: 0.623863 cumulative IPC: 0.5969 (Simulation time: 0 hr 46 min 15 sec) 
Heartbeat CPU 0 instructions: 59000001 cycles: 87829276 heartbeat IPC: 0.619486 cumulative IPC: 0.597344 (Simulation time: 0 hr 47 min 2 sec) 
Heartbeat CPU 0 instructions: 60000000 cycles: 89441812 heartbeat IPC: 0.620141 cumulative IPC: 0.597784 (Simulation time: 0 hr 47 min 54 sec) 
Heartbeat CPU 0 instructions: 61000000 cycles: 91035374 heartbeat IPC: 0.627525 cumulative IPC: 0.59834 (Simulation time: 0 hr 48 min 44 sec) 
Heartbeat CPU 0 instructions: 62000003 cycles: 92613213 heartbeat IPC: 0.63378 cumulative IPC: 0.598984 (Simulation time: 0 hr 49 min 34 sec) 
Heartbeat CPU 0 instructions: 63000002 cycles: 94212122 heartbeat IPC: 0.625426 cumulative IPC: 0.599462 (Simulation time: 0 hr 50 min 23 sec) 
Heartbeat CPU 0 instructions: 64000000 cycles: 95825645 heartbeat IPC: 0.619761 cumulative IPC: 0.599826 (Simulation time: 0 hr 51 min 14 sec) 
Heartbeat CPU 0 instructions: 65000001 cycles: 97462217 heartbeat IPC: 0.611034 cumulative IPC: 0.600026 (Simulation time: 0 hr 52 min 4 sec) 
Heartbeat CPU 0 instructions: 66000001 cycles: 99095399 heartbeat IPC: 0.612302 cumulative IPC: 0.600241 (Simulation time: 0 hr 52 min 52 sec) 
Heartbeat CPU 0 instructions: 67000000 cycles: 100699078 heartbeat IPC: 0.623566 cumulative IPC: 0.600635 (Simulation time: 0 hr 53 min 41 sec) 
Heartbeat CPU 0 instructions: 68000000 cycles: 102322667 heartbeat IPC: 0.615919 cumulative IPC: 0.600892 (Simulation time: 0 hr 54 min 26 sec) 
Heartbeat CPU 0 instructions: 69000000 cycles: 103930601 heartbeat IPC: 0.621916 cumulative IPC: 0.601236 (Simulation time: 0 hr 55 min 17 sec) 
Heartbeat CPU 0 instructions: 70000003 cycles: 105504725 heartbeat IPC: 0.635276 cumulative IPC: 0.601774 (Simulation time: 0 hr 56 min 0 sec) 
Heartbeat CPU 0 instructions: 71000003 cycles: 107121674 heartbeat IPC: 0.618449 cumulative IPC: 0.60204 (Simulation time: 0 hr 56 min 45 sec) 
Heartbeat CPU 0 instructions: 72000000 cycles: 108703998 heartbeat IPC: 0.63198 cumulative IPC: 0.6025 (Simulation time: 0 hr 57 min 29 sec) 
Heartbeat CPU 0 instructions: 73000002 cycles: 110332968 heartbeat IPC: 0.613886 cumulative IPC: 0.602678 (Simulation time: 0 hr 58 min 16 sec) 
Heartbeat CPU 0 instructions: 74000000 cycles: 111960453 heartbeat IPC: 0.614444 cumulative IPC: 0.602858 (Simulation time: 0 hr 59 min 3 sec) 
Heartbeat CPU 0 instructions: 75000000 cycles: 113595278 heartbeat IPC: 0.611686 cumulative IPC: 0.602992 (Simulation time: 0 hr 59 min 47 sec) 
Heartbeat CPU 0 instructions: 76000000 cycles: 115185306 heartbeat IPC: 0.62892 cumulative IPC: 0.603369 (Simulation time: 1 hr 0 min 32 sec) 
Heartbeat CPU 0 instructions: 77000002 cycles: 116823956 heartbeat IPC: 0.61026 cumulative IPC: 0.603471 (Simulation time: 1 hr 1 min 18 sec) 
Heartbeat CPU 0 instructions: 78000001 cycles: 118417380 heartbeat IPC: 0.627579 cumulative IPC: 0.603812 (Simulation time: 1 hr 2 min 5 sec) 
Heartbeat CPU 0 instructions: 79000001 cycles: 120006247 heartbeat IPC: 0.629379 cumulative IPC: 0.604167 (Simulation time: 1 hr 2 min 44 sec) 
Heartbeat CPU 0 instructions: 80000000 cycles: 121606517 heartbeat IPC: 0.624894 cumulative IPC: 0.604454 (Simulation time: 1 hr 3 min 23 sec) 
Heartbeat CPU 0 instructions: 81000001 cycles: 123213423 heartbeat IPC: 0.622315 cumulative IPC: 0.604698 (Simulation time: 1 hr 3 min 58 sec) 
Heartbeat CPU 0 instructions: 82000000 cycles: 124820610 heartbeat IPC: 0.622204 cumulative IPC: 0.604935 (Simulation time: 1 hr 4 min 32 sec) 
Heartbeat CPU 0 instructions: 83000003 cycles: 126421473 heartbeat IPC: 0.624665 cumulative IPC: 0.605197 (Simulation time: 1 hr 5 min 13 sec) 
Heartbeat CPU 0 instructions: 84000000 cycles: 128020906 heartbeat IPC: 0.62522 cumulative IPC: 0.605459 (Simulation time: 1 hr 5 min 46 sec) 
Heartbeat CPU 0 instructions: 85000001 cycles: 129643450 heartbeat IPC: 0.616317 cumulative IPC: 0.605601 (Simulation time: 1 hr 6 min 21 sec) 
Heartbeat CPU 0 instructions: 86000000 cycles: 131256907 heartbeat IPC: 0.619787 cumulative IPC: 0.605783 (Simulation time: 1 hr 6 min 55 sec) 
Heartbeat CPU 0 instructions: 87000002 cycles: 132860947 heartbeat IPC: 0.623427 cumulative IPC: 0.606006 (Simulation time: 1 hr 7 min 21 sec) 
Heartbeat CPU 0 instructions: 88000000 cycles: 134481864 heartbeat IPC: 0.616934 cumulative IPC: 0.606144 (Simulation time: 1 hr 7 min 47 sec) 
Heartbeat CPU 0 instructions: 89000003 cycles: 136116057 heartbeat IPC: 0.611925 cumulative IPC: 0.606216 (Simulation time: 1 hr 8 min 17 sec) 
Heartbeat CPU 0 instructions: 90000000 cycles: 137764049 heartbeat IPC: 0.606797 cumulative IPC: 0.606223 (Simulation time: 1 hr 8 min 48 sec) 
Heartbeat CPU 0 instructions: 91000002 cycles: 139399135 heartbeat IPC: 0.61159 cumulative IPC: 0.606289 (Simulation time: 1 hr 9 min 19 sec) 
Heartbeat CPU 0 instructions: 92000000 cycles: 141018143 heartbeat IPC: 0.617661 cumulative IPC: 0.606425 (Simulation time: 1 hr 9 min 51 sec) 
Heartbeat CPU 0 instructions: 93000001 cycles: 142646227 heartbeat IPC: 0.61422 cumulative IPC: 0.606518 (Simulation time: 1 hr 10 min 17 sec) 
Heartbeat CPU 0 instructions: 94000000 cycles: 144245837 heartbeat IPC: 0.625152 cumulative IPC: 0.606733 (Simulation time: 1 hr 10 min 47 sec) 
Heartbeat CPU 0 instructions: 95000001 cycles: 145838072 heartbeat IPC: 0.628049 cumulative IPC: 0.606976 (Simulation time: 1 hr 11 min 8 sec) 
Heartbeat CPU 0 instructions: 96000000 cycles: 147449397 heartbeat IPC: 0.620607 cumulative IPC: 0.607131 (Simulation time: 1 hr 11 min 28 sec) 
Heartbeat CPU 0 instructions: 97000002 cycles: 149059458 heartbeat IPC: 0.621096 cumulative IPC: 0.607288 (Simulation time: 1 hr 11 min 48 sec) 
Heartbeat CPU 0 instructions: 98000000 cycles: 150685118 heartbeat IPC: 0.615134 cumulative IPC: 0.607376 (Simulation time: 1 hr 12 min 7 sec) 
Heartbeat CPU 0 instructions: 99000000 cycles: 152262312 heartbeat IPC: 0.634037 cumulative IPC: 0.607663 (Simulation time: 1 hr 12 min 26 sec) 
Heartbeat CPU 0 instructions: 100000000 cycles: 153885539 heartbeat IPC: 0.616057 cumulative IPC: 0.607755 (Simulation time: 1 hr 12 min 43 sec) 
Heartbeat CPU 0 instructions: 101000001 cycles: 155514726 heartbeat IPC: 0.613804 cumulative IPC: 0.607821 (Simulation time: 1 hr 13 min 2 sec) 
Heartbeat CPU 0 instructions: 102000000 cycles: 157137216 heartbeat IPC: 0.616336 cumulative IPC: 0.607912 (Simulation time: 1 hr 13 min 18 sec) 
Heartbeat CPU 0 instructions: 103000003 cycles: 158741331 heartbeat IPC: 0.623399 cumulative IPC: 0.608074 (Simulation time: 1 hr 13 min 34 sec) 
Heartbeat CPU 0 instructions: 104000000 cycles: 160361703 heartbeat IPC: 0.61714 cumulative IPC: 0.608169 (Simulation time: 1 hr 13 min 50 sec) 
Heartbeat CPU 0 instructions: 105000000 cycles: 161996653 heartbeat IPC: 0.611639 cumulative IPC: 0.608206 (Simulation time: 1 hr 14 min 6 sec) 
Heartbeat CPU 0 instructions: 106000001 cycles: 163619815 heartbeat IPC: 0.616082 cumulative IPC: 0.608287 (Simulation time: 1 hr 14 min 21 sec) 
Heartbeat CPU 0 instructions: 107000001 cycles: 165238936 heartbeat IPC: 0.617619 cumulative IPC: 0.608381 (Simulation time: 1 hr 14 min 33 sec) 
Heartbeat CPU 0 instructions: 108000000 cycles: 166859849 heartbeat IPC: 0.616936 cumulative IPC: 0.608468 (Simulation time: 1 hr 14 min 45 sec) 
Heartbeat CPU 0 instructions: 109000000 cycles: 168440942 heartbeat IPC: 0.632474 cumulative IPC: 0.608701 (Simulation time: 1 hr 14 min 56 sec) 
Heartbeat CPU 0 instructions: 110000002 cycles: 170045064 heartbeat IPC: 0.623395 cumulative IPC: 0.608844 (Simulation time: 1 hr 15 min 6 sec) 
Finished CPU 0 instructions: 100000001 cycles: 164245572 cummulative IPC: 0.608844 (Simulation time: 1 hr 15 min 6 sec) 

ChampSim completed all CPUs

Region of Interest Statistics

CPU 0 cummulative IPC: 0.608844 instructions: 100000001 cycles: 164245572
LLC TOTAL     ACCESS:    4812487  HIT:     587775  MISS:    4224712
LLC LOAD      ACCESS:     462126  HIT:      36108  MISS:     426018
LLC RFO       ACCESS:     126471  HIT:      96685  MISS:      29786
LLC PREFETCH  ACCESS:    2859595  HIT:     108050  MISS:    2751545
LLC WRITEBACK ACCESS:    1364295  HIT:     346932  MISS:    1017363
