
*** ChampSim Multicore Out-of-Order Simulator ***

Warmup Instructions: 10000000
Simulation Instructions: 100000000
Configuration: 2
Number of CPUs: 1
LLC sets: 2048
LLC ways: 16
Off-chip DRAM Channels: 1 Width: 64-bit Data Rate: 1600 MT/s

CPU 0 runs /datasets/cs240c-wi22-a00-public/data/Assignment2-gz/sphinx3_1339B.trace.gz
CPU 0 L1D next line prefetcher
CPU 0 L2C IP-based stride prefetcher
Heartbeat CPU 0 instructions: 1000000 cycles: 339022 heartbeat IPC: 2.94966 cumulative IPC: 2.94966 (Simulation time: 0 hr 0 min 31 sec) 
Heartbeat CPU 0 instructions: 2000001 cycles: 693421 heartbeat IPC: 2.82168 cumulative IPC: 2.88425 (Simulation time: 0 hr 0 min 57 sec) 
Heartbeat CPU 0 instructions: 3000000 cycles: 1084511 heartbeat IPC: 2.55695 cumulative IPC: 2.76622 (Simulation time: 0 hr 1 min 25 sec) 
Heartbeat CPU 0 instructions: 4000000 cycles: 1530043 heartbeat IPC: 2.24451 cumulative IPC: 2.61431 (Simulation time: 0 hr 1 min 55 sec) 
Heartbeat CPU 0 instructions: 5000003 cycles: 1869062 heartbeat IPC: 2.9497 cumulative IPC: 2.67514 (Simulation time: 0 hr 2 min 23 sec) 
Heartbeat CPU 0 instructions: 6000002 cycles: 2253262 heartbeat IPC: 2.60281 cumulative IPC: 2.66281 (Simulation time: 0 hr 2 min 57 sec) 
Heartbeat CPU 0 instructions: 7000001 cycles: 2717189 heartbeat IPC: 2.15551 cumulative IPC: 2.57619 (Simulation time: 0 hr 3 min 28 sec) 
Heartbeat CPU 0 instructions: 8000000 cycles: 3056060 heartbeat IPC: 2.95097 cumulative IPC: 2.61775 (Simulation time: 0 hr 3 min 57 sec) 
Heartbeat CPU 0 instructions: 9000003 cycles: 3412632 heartbeat IPC: 2.80449 cumulative IPC: 2.63726 (Simulation time: 0 hr 4 min 29 sec) 
Heartbeat CPU 0 instructions: 10000001 cycles: 3799551 heartbeat IPC: 2.58452 cumulative IPC: 2.63189 (Simulation time: 0 hr 5 min 1 sec) 

Warmup complete CPU 0 instructions: 10000001 cycles: 3799551 (Simulation time: 0 hr 5 min 1 sec) 

Heartbeat CPU 0 instructions: 11000001 cycles: 4719735 heartbeat IPC: 1.08674 cumulative IPC: 1.08674 (Simulation time: 0 hr 5 min 33 sec) 
Heartbeat CPU 0 instructions: 12000000 cycles: 5611435 heartbeat IPC: 1.12145 cumulative IPC: 1.10382 (Simulation time: 0 hr 6 min 9 sec) 
Heartbeat CPU 0 instructions: 13000000 cycles: 6968581 heartbeat IPC: 0.73684 cumulative IPC: 0.946662 (Simulation time: 0 hr 6 min 48 sec) 
Heartbeat CPU 0 instructions: 14000000 cycles: 7877027 heartbeat IPC: 1.10078 cumulative IPC: 0.980999 (Simulation time: 0 hr 7 min 26 sec) 
Heartbeat CPU 0 instructions: 15000001 cycles: 8768598 heartbeat IPC: 1.12162 cumulative IPC: 1.00623 (Simulation time: 0 hr 8 min 1 sec) 
Heartbeat CPU 0 instructions: 16000000 cycles: 9868147 heartbeat IPC: 0.909463 cumulative IPC: 0.988696 (Simulation time: 0 hr 8 min 39 sec) 
Heartbeat CPU 0 instructions: 17000001 cycles: 11229756 heartbeat IPC: 0.734426 cumulative IPC: 0.942101 (Simulation time: 0 hr 9 min 17 sec) 
Heartbeat CPU 0 instructions: 18000003 cycles: 12299862 heartbeat IPC: 0.934489 cumulative IPC: 0.941142 (Simulation time: 0 hr 9 min 52 sec) 
Heartbeat CPU 0 instructions: 19000002 cycles: 13170809 heartbeat IPC: 1.14817 cumulative IPC: 0.960383 (Simulation time: 0 hr 10 min 28 sec) 
Heartbeat CPU 0 instructions: 20000000 cycles: 14054040 heartbeat IPC: 1.1322 cumulative IPC: 0.975183 (Simulation time: 0 hr 11 min 4 sec) 
Heartbeat CPU 0 instructions: 21000000 cycles: 15297334 heartbeat IPC: 0.804315 cumulative IPC: 0.956706 (Simulation time: 0 hr 11 min 44 sec) 
Heartbeat CPU 0 instructions: 22000000 cycles: 16304757 heartbeat IPC: 0.992632 cumulative IPC: 0.9596 (Simulation time: 0 hr 12 min 16 sec) 
Heartbeat CPU 0 instructions: 23000003 cycles: 17170648 heartbeat IPC: 1.15488 cumulative IPC: 0.972246 (Simulation time: 0 hr 12 min 54 sec) 
Heartbeat CPU 0 instructions: 24000000 cycles: 18135155 heartbeat IPC: 1.0368 cumulative IPC: 0.976589 (Simulation time: 0 hr 13 min 28 sec) 
Heartbeat CPU 0 instructions: 25000001 cycles: 19103844 heartbeat IPC: 1.03232 cumulative IPC: 0.980117 (Simulation time: 0 hr 14 min 5 sec) 
Heartbeat CPU 0 instructions: 26000003 cycles: 19942994 heartbeat IPC: 1.19168 cumulative IPC: 0.991115 (Simulation time: 0 hr 14 min 40 sec) 
Heartbeat CPU 0 instructions: 27000002 cycles: 20793939 heartbeat IPC: 1.17516 cumulative IPC: 1.00033 (Simulation time: 0 hr 15 min 12 sec) 
Heartbeat CPU 0 instructions: 28000000 cycles: 21774970 heartbeat IPC: 1.01933 cumulative IPC: 1.00137 (Simulation time: 0 hr 15 min 46 sec) 
Heartbeat CPU 0 instructions: 29000003 cycles: 22609791 heartbeat IPC: 1.19787 cumulative IPC: 1.01009 (Simulation time: 0 hr 16 min 19 sec) 
Heartbeat CPU 0 instructions: 30000003 cycles: 23437603 heartbeat IPC: 1.208 cumulative IPC: 1.01843 (Simulation time: 0 hr 16 min 51 sec) 
Heartbeat CPU 0 instructions: 31000002 cycles: 24387270 heartbeat IPC: 1.053 cumulative IPC: 1.02003 (Simulation time: 0 hr 17 min 28 sec) 
Heartbeat CPU 0 instructions: 32000000 cycles: 25268380 heartbeat IPC: 1.13493 cumulative IPC: 1.02474 (Simulation time: 0 hr 18 min 3 sec) 
Heartbeat CPU 0 instructions: 33000001 cycles: 26096798 heartbeat IPC: 1.20712 cumulative IPC: 1.03152 (Simulation time: 0 hr 18 min 36 sec) 
Heartbeat CPU 0 instructions: 34000001 cycles: 27500898 heartbeat IPC: 0.7122 cumulative IPC: 1.0126 (Simulation time: 0 hr 19 min 15 sec) 
Heartbeat CPU 0 instructions: 35000002 cycles: 28424399 heartbeat IPC: 1.08284 cumulative IPC: 1.01523 (Simulation time: 0 hr 19 min 49 sec) 
Heartbeat CPU 0 instructions: 36000000 cycles: 29290619 heartbeat IPC: 1.15444 cumulative IPC: 1.01997 (Simulation time: 0 hr 20 min 25 sec) 
Heartbeat CPU 0 instructions: 37000003 cycles: 30323508 heartbeat IPC: 0.968161 cumulative IPC: 1.01795 (Simulation time: 0 hr 21 min 1 sec) 
Heartbeat CPU 0 instructions: 38000000 cycles: 31512813 heartbeat IPC: 0.840825 cumulative IPC: 1.01035 (Simulation time: 0 hr 21 min 36 sec) 
Heartbeat CPU 0 instructions: 39000000 cycles: 32393024 heartbeat IPC: 1.13609 cumulative IPC: 1.01422 (Simulation time: 0 hr 22 min 10 sec) 
Heartbeat CPU 0 instructions: 40000000 cycles: 33227964 heartbeat IPC: 1.19769 cumulative IPC: 1.01942 (Simulation time: 0 hr 22 min 44 sec) 
Heartbeat CPU 0 instructions: 41000000 cycles: 34484359 heartbeat IPC: 0.795928 cumulative IPC: 1.01027 (Simulation time: 0 hr 23 min 24 sec) 
Heartbeat CPU 0 instructions: 42000002 cycles: 35376368 heartbeat IPC: 1.12107 cumulative IPC: 1.0134 (Simulation time: 0 hr 23 min 56 sec) 
Heartbeat CPU 0 instructions: 43000001 cycles: 36227326 heartbeat IPC: 1.17514 cumulative IPC: 1.01765 (Simulation time: 0 hr 24 min 32 sec) 
Heartbeat CPU 0 instructions: 44000000 cycles: 37303182 heartbeat IPC: 0.929492 cumulative IPC: 1.01482 (Simulation time: 0 hr 25 min 11 sec) 
Heartbeat CPU 0 instructions: 45000002 cycles: 38330149 heartbeat IPC: 0.973743 cumulative IPC: 1.01359 (Simulation time: 0 hr 25 min 46 sec) 
Heartbeat CPU 0 instructions: 46000003 cycles: 39157185 heartbeat IPC: 1.20914 cumulative IPC: 1.01817 (Simulation time: 0 hr 26 min 22 sec) 
Heartbeat CPU 0 instructions: 47000001 cycles: 40001691 heartbeat IPC: 1.18412 cumulative IPC: 1.02204 (Simulation time: 0 hr 27 min 0 sec) 
Heartbeat CPU 0 instructions: 48000000 cycles: 41015681 heartbeat IPC: 0.986202 cumulative IPC: 1.02106 (Simulation time: 0 hr 27 min 35 sec) 
Heartbeat CPU 0 instructions: 49000000 cycles: 41865761 heartbeat IPC: 1.17636 cumulative IPC: 1.02453 (Simulation time: 0 hr 28 min 11 sec) 
Heartbeat CPU 0 instructions: 50000000 cycles: 42686983 heartbeat IPC: 1.2177 cumulative IPC: 1.02861 (Simulation time: 0 hr 28 min 46 sec) 
Heartbeat CPU 0 instructions: 51000001 cycles: 43912086 heartbeat IPC: 0.816259 cumulative IPC: 1.02212 (Simulation time: 0 hr 29 min 23 sec) 
Heartbeat CPU 0 instructions: 52000000 cycles: 44759716 heartbeat IPC: 1.17976 cumulative IPC: 1.02539 (Simulation time: 0 hr 29 min 59 sec) 
Heartbeat CPU 0 instructions: 53000002 cycles: 45587558 heartbeat IPC: 1.20796 cumulative IPC: 1.029 (Simulation time: 0 hr 30 min 35 sec) 
Heartbeat CPU 0 instructions: 54000003 cycles: 46756328 heartbeat IPC: 0.855601 cumulative IPC: 1.02429 (Simulation time: 0 hr 31 min 12 sec) 
Heartbeat CPU 0 instructions: 55000001 cycles: 47674019 heartbeat IPC: 1.08969 cumulative IPC: 1.02565 (Simulation time: 0 hr 31 min 44 sec) 
Heartbeat CPU 0 instructions: 56000000 cycles: 48516762 heartbeat IPC: 1.1866 cumulative IPC: 1.02869 (Simulation time: 0 hr 32 min 19 sec) 
Heartbeat CPU 0 instructions: 57000000 cycles: 49500156 heartbeat IPC: 1.01689 cumulative IPC: 1.02843 (Simulation time: 0 hr 32 min 56 sec) 
Heartbeat CPU 0 instructions: 58000000 cycles: 50602534 heartbeat IPC: 0.90713 cumulative IPC: 1.02558 (Simulation time: 0 hr 33 min 35 sec) 
Heartbeat CPU 0 instructions: 59000001 cycles: 51436127 heartbeat IPC: 1.19963 cumulative IPC: 1.02862 (Simulation time: 0 hr 34 min 10 sec) 
Heartbeat CPU 0 instructions: 60000000 cycles: 52267456 heartbeat IPC: 1.20289 cumulative IPC: 1.03161 (Simulation time: 0 hr 34 min 44 sec) 
Heartbeat CPU 0 instructions: 61000000 cycles: 53602697 heartbeat IPC: 0.748928 cumulative IPC: 1.02403 (Simulation time: 0 hr 35 min 22 sec) 
Heartbeat CPU 0 instructions: 62000002 cycles: 54742931 heartbeat IPC: 0.877015 cumulative IPC: 1.02074 (Simulation time: 0 hr 36 min 0 sec) 
Heartbeat CPU 0 instructions: 63000003 cycles: 55588352 heartbeat IPC: 1.18284 cumulative IPC: 1.02339 (Simulation time: 0 hr 36 min 32 sec) 
Heartbeat CPU 0 instructions: 64000000 cycles: 56417769 heartbeat IPC: 1.20566 cumulative IPC: 1.02626 (Simulation time: 0 hr 37 min 9 sec) 
Heartbeat CPU 0 instructions: 65000000 cycles: 57498371 heartbeat IPC: 0.92541 cumulative IPC: 1.02423 (Simulation time: 0 hr 37 min 46 sec) 
Heartbeat CPU 0 instructions: 66000001 cycles: 58485214 heartbeat IPC: 1.01333 cumulative IPC: 1.02403 (Simulation time: 0 hr 38 min 20 sec) 
Heartbeat CPU 0 instructions: 67000000 cycles: 59317869 heartbeat IPC: 1.20098 cumulative IPC: 1.02669 (Simulation time: 0 hr 38 min 53 sec) 
Heartbeat CPU 0 instructions: 68000000 cycles: 60212860 heartbeat IPC: 1.11733 cumulative IPC: 1.02813 (Simulation time: 0 hr 39 min 30 sec) 
Heartbeat CPU 0 instructions: 69000003 cycles: 61357130 heartbeat IPC: 0.873922 cumulative IPC: 1.02506 (Simulation time: 0 hr 40 min 4 sec) 
Heartbeat CPU 0 instructions: 70000001 cycles: 62217314 heartbeat IPC: 1.16254 cumulative IPC: 1.02708 (Simulation time: 0 hr 40 min 39 sec) 
Heartbeat CPU 0 instructions: 71000001 cycles: 63042027 heartbeat IPC: 1.21254 cumulative IPC: 1.02967 (Simulation time: 0 hr 41 min 11 sec) 
Heartbeat CPU 0 instructions: 72000000 cycles: 64265597 heartbeat IPC: 0.81728 cumulative IPC: 1.02537 (Simulation time: 0 hr 41 min 48 sec) 
Heartbeat CPU 0 instructions: 73000001 cycles: 65116725 heartbeat IPC: 1.17491 cumulative IPC: 1.02744 (Simulation time: 0 hr 42 min 22 sec) 
Heartbeat CPU 0 instructions: 74000001 cycles: 65943730 heartbeat IPC: 1.20918 cumulative IPC: 1.02986 (Simulation time: 0 hr 43 min 0 sec) 
Heartbeat CPU 0 instructions: 75000003 cycles: 67050242 heartbeat IPC: 0.903743 cumulative IPC: 1.02766 (Simulation time: 0 hr 43 min 38 sec) 
Heartbeat CPU 0 instructions: 76000000 cycles: 67993983 heartbeat IPC: 1.05961 cumulative IPC: 1.02813 (Simulation time: 0 hr 44 min 9 sec) 
Heartbeat CPU 0 instructions: 77000002 cycles: 68826570 heartbeat IPC: 1.20108 cumulative IPC: 1.03034 (Simulation time: 0 hr 44 min 43 sec) 
Heartbeat CPU 0 instructions: 78000002 cycles: 69752427 heartbeat IPC: 1.08008 cumulative IPC: 1.03104 (Simulation time: 0 hr 45 min 16 sec) 
Heartbeat CPU 0 instructions: 79000001 cycles: 70845124 heartbeat IPC: 0.915166 cumulative IPC: 1.02915 (Simulation time: 0 hr 45 min 47 sec) 
Heartbeat CPU 0 instructions: 80000000 cycles: 71703711 heartbeat IPC: 1.1647 cumulative IPC: 1.03086 (Simulation time: 0 hr 46 min 19 sec) 
Heartbeat CPU 0 instructions: 81000003 cycles: 72535555 heartbeat IPC: 1.20215 cumulative IPC: 1.03294 (Simulation time: 0 hr 46 min 52 sec) 
Heartbeat CPU 0 instructions: 82000000 cycles: 73727989 heartbeat IPC: 0.838618 cumulative IPC: 1.02962 (Simulation time: 0 hr 47 min 23 sec) 
Heartbeat CPU 0 instructions: 83000001 cycles: 74584571 heartbeat IPC: 1.16743 cumulative IPC: 1.03129 (Simulation time: 0 hr 48 min 0 sec) 
Heartbeat CPU 0 instructions: 84000000 cycles: 75416232 heartbeat IPC: 1.20241 cumulative IPC: 1.03328 (Simulation time: 0 hr 48 min 35 sec) 
Heartbeat CPU 0 instructions: 85000002 cycles: 76574732 heartbeat IPC: 0.863187 cumulative IPC: 1.03057 (Simulation time: 0 hr 49 min 4 sec) 
Heartbeat CPU 0 instructions: 86000003 cycles: 77479019 heartbeat IPC: 1.10584 cumulative IPC: 1.03149 (Simulation time: 0 hr 49 min 39 sec) 
Heartbeat CPU 0 instructions: 87000001 cycles: 78313127 heartbeat IPC: 1.19888 cumulative IPC: 1.03337 (Simulation time: 0 hr 50 min 12 sec) 
Heartbeat CPU 0 instructions: 88000000 cycles: 79335546 heartbeat IPC: 0.978072 cumulative IPC: 1.03262 (Simulation time: 0 hr 50 min 44 sec) 
Heartbeat CPU 0 instructions: 89000000 cycles: 80364552 heartbeat IPC: 0.971812 cumulative IPC: 1.0318 (Simulation time: 0 hr 51 min 18 sec) 
Heartbeat CPU 0 instructions: 90000003 cycles: 81193128 heartbeat IPC: 1.20689 cumulative IPC: 1.03368 (Simulation time: 0 hr 51 min 52 sec) 
Heartbeat CPU 0 instructions: 91000000 cycles: 82039438 heartbeat IPC: 1.1816 cumulative IPC: 1.03528 (Simulation time: 0 hr 52 min 27 sec) 
Heartbeat CPU 0 instructions: 92000000 cycles: 83239592 heartbeat IPC: 0.833226 cumulative IPC: 1.03223 (Simulation time: 0 hr 52 min 59 sec) 
Heartbeat CPU 0 instructions: 93000001 cycles: 84091436 heartbeat IPC: 1.17393 cumulative IPC: 1.03373 (Simulation time: 0 hr 53 min 31 sec) 
Heartbeat CPU 0 instructions: 94000001 cycles: 84917377 heartbeat IPC: 1.21074 cumulative IPC: 1.03553 (Simulation time: 0 hr 54 min 7 sec) 
Heartbeat CPU 0 instructions: 95000002 cycles: 86144519 heartbeat IPC: 0.814902 cumulative IPC: 1.03224 (Simulation time: 0 hr 54 min 41 sec) 
Heartbeat CPU 0 instructions: 96000000 cycles: 87011018 heartbeat IPC: 1.15407 cumulative IPC: 1.03351 (Simulation time: 0 hr 55 min 12 sec) 
Heartbeat CPU 0 instructions: 97000002 cycles: 87839477 heartbeat IPC: 1.20706 cumulative IPC: 1.03522 (Simulation time: 0 hr 55 min 42 sec) 
Heartbeat CPU 0 instructions: 98000000 cycles: 88943357 heartbeat IPC: 0.905894 cumulative IPC: 1.03355 (Simulation time: 0 hr 56 min 13 sec) 
Heartbeat CPU 0 instructions: 99000003 cycles: 90054760 heartbeat IPC: 0.899766 cumulative IPC: 1.03182 (Simulation time: 0 hr 56 min 48 sec) 
Heartbeat CPU 0 instructions: 100000000 cycles: 90902331 heartbeat IPC: 1.17984 cumulative IPC: 1.03326 (Simulation time: 0 hr 57 min 18 sec) 
Heartbeat CPU 0 instructions: 101000000 cycles: 91751732 heartbeat IPC: 1.1773 cumulative IPC: 1.03465 (Simulation time: 0 hr 57 min 53 sec) 
Heartbeat CPU 0 instructions: 102000001 cycles: 93220034 heartbeat IPC: 0.681059 cumulative IPC: 1.02885 (Simulation time: 0 hr 58 min 28 sec) 
Heartbeat CPU 0 instructions: 103000000 cycles: 94468871 heartbeat IPC: 0.800744 cumulative IPC: 1.02571 (Simulation time: 0 hr 59 min 4 sec) 
Heartbeat CPU 0 instructions: 104000000 cycles: 95418513 heartbeat IPC: 1.05303 cumulative IPC: 1.02599 (Simulation time: 0 hr 59 min 34 sec) 
Heartbeat CPU 0 instructions: 105000003 cycles: 96252869 heartbeat IPC: 1.19853 cumulative IPC: 1.02755 (Simulation time: 1 hr 0 min 5 sec) 
Heartbeat CPU 0 instructions: 106000000 cycles: 97123075 heartbeat IPC: 1.14915 cumulative IPC: 1.02868 (Simulation time: 1 hr 0 min 34 sec) 
Heartbeat CPU 0 instructions: 107000001 cycles: 98587175 heartbeat IPC: 0.683014 cumulative IPC: 1.02334 (Simulation time: 1 hr 1 min 7 sec) 
Heartbeat CPU 0 instructions: 108000000 cycles: 99505884 heartbeat IPC: 1.08848 cumulative IPC: 1.02397 (Simulation time: 1 hr 1 min 37 sec) 
Heartbeat CPU 0 instructions: 109000000 cycles: 100340345 heartbeat IPC: 1.19838 cumulative IPC: 1.02547 (Simulation time: 1 hr 2 min 4 sec) 
Heartbeat CPU 0 instructions: 110000000 cycles: 101470448 heartbeat IPC: 0.884875 cumulative IPC: 1.02385 (Simulation time: 1 hr 2 min 30 sec) 
Finished CPU 0 instructions: 100000000 cycles: 97670899 cummulative IPC: 1.02385 (Simulation time: 1 hr 2 min 30 sec) 

ChampSim completed all CPUs

Region of Interest Statistics

CPU 0 cummulative IPC: 1.02385 instructions: 100000000 cycles: 97670899
LLC TOTAL     ACCESS:    1574055  HIT:     547121  MISS:    1026934
LLC LOAD      ACCESS:     202281  HIT:     171989  MISS:      30292
LLC RFO       ACCESS:     111370  HIT:     110138  MISS:       1232
LLC PREFETCH  ACCESS:    1127245  HIT:     132075  MISS:     995170
LLC WRITEBACK ACCESS:     133159  HIT:     132919  MISS:        240
