
*** ChampSim Multicore Out-of-Order Simulator ***

Warmup Instructions: 10000000
Simulation Instructions: 100000000
Configuration: 2
Number of CPUs: 1
LLC sets: 2048
LLC ways: 16
Off-chip DRAM Channels: 1 Width: 64-bit Data Rate: 1600 MT/s

CPU 0 runs /datasets/cs240c-wi22-a00-public/data/Assignment2-gz/leslie3d_94B.trace.gz
CPU 0 L1D next line prefetcher
CPU 0 L2C IP-based stride prefetcher
Heartbeat CPU 0 instructions: 1000003 cycles: 597056 heartbeat IPC: 1.67489 cumulative IPC: 1.67489 (Simulation time: 0 hr 0 min 46 sec) 
Heartbeat CPU 0 instructions: 2000002 cycles: 1215973 heartbeat IPC: 1.61572 cumulative IPC: 1.64478 (Simulation time: 0 hr 1 min 24 sec) 
Heartbeat CPU 0 instructions: 3000002 cycles: 1867808 heartbeat IPC: 1.53413 cumulative IPC: 1.60616 (Simulation time: 0 hr 2 min 10 sec) 
Heartbeat CPU 0 instructions: 4000000 cycles: 2519116 heartbeat IPC: 1.53537 cumulative IPC: 1.58786 (Simulation time: 0 hr 3 min 0 sec) 
Heartbeat CPU 0 instructions: 5000002 cycles: 3084141 heartbeat IPC: 1.76984 cumulative IPC: 1.6212 (Simulation time: 0 hr 3 min 43 sec) 
Heartbeat CPU 0 instructions: 6000002 cycles: 3734784 heartbeat IPC: 1.53694 cumulative IPC: 1.60652 (Simulation time: 0 hr 4 min 27 sec) 
Heartbeat CPU 0 instructions: 7000000 cycles: 4385479 heartbeat IPC: 1.53682 cumulative IPC: 1.59618 (Simulation time: 0 hr 5 min 8 sec) 
Heartbeat CPU 0 instructions: 8000000 cycles: 4950484 heartbeat IPC: 1.7699 cumulative IPC: 1.616 (Simulation time: 0 hr 5 min 47 sec) 
Heartbeat CPU 0 instructions: 9000000 cycles: 5601367 heartbeat IPC: 1.53637 cumulative IPC: 1.60675 (Simulation time: 0 hr 6 min 27 sec) 
Heartbeat CPU 0 instructions: 10000001 cycles: 6252587 heartbeat IPC: 1.53558 cumulative IPC: 1.59934 (Simulation time: 0 hr 7 min 15 sec) 

Warmup complete CPU 0 instructions: 10000001 cycles: 6252587 (Simulation time: 0 hr 7 min 15 sec) 

Heartbeat CPU 0 instructions: 11000000 cycles: 7489267 heartbeat IPC: 0.808616 cumulative IPC: 0.808616 (Simulation time: 0 hr 8 min 1 sec) 
Heartbeat CPU 0 instructions: 12000000 cycles: 9229933 heartbeat IPC: 0.574493 cumulative IPC: 0.671739 (Simulation time: 0 hr 8 min 48 sec) 
Heartbeat CPU 0 instructions: 13000000 cycles: 11195059 heartbeat IPC: 0.508873 cumulative IPC: 0.606983 (Simulation time: 0 hr 9 min 41 sec) 
Heartbeat CPU 0 instructions: 14000001 cycles: 13284330 heartbeat IPC: 0.478636 cumulative IPC: 0.568849 (Simulation time: 0 hr 10 min 27 sec) 
Heartbeat CPU 0 instructions: 15000001 cycles: 15354807 heartbeat IPC: 0.48298 cumulative IPC: 0.549317 (Simulation time: 0 hr 11 min 16 sec) 
Heartbeat CPU 0 instructions: 16000000 cycles: 17405579 heartbeat IPC: 0.487621 cumulative IPC: 0.537972 (Simulation time: 0 hr 12 min 9 sec) 
Heartbeat CPU 0 instructions: 17000000 cycles: 19386468 heartbeat IPC: 0.504824 cumulative IPC: 0.532973 (Simulation time: 0 hr 13 min 2 sec) 
Heartbeat CPU 0 instructions: 18000002 cycles: 21399567 heartbeat IPC: 0.496748 cumulative IPC: 0.528158 (Simulation time: 0 hr 13 min 57 sec) 
Heartbeat CPU 0 instructions: 19000001 cycles: 23438628 heartbeat IPC: 0.490421 cumulative IPC: 0.523681 (Simulation time: 0 hr 14 min 46 sec) 
Heartbeat CPU 0 instructions: 20000000 cycles: 25423232 heartbeat IPC: 0.503878 cumulative IPC: 0.521631 (Simulation time: 0 hr 15 min 40 sec) 
Heartbeat CPU 0 instructions: 21000002 cycles: 27388114 heartbeat IPC: 0.508937 cumulative IPC: 0.520451 (Simulation time: 0 hr 16 min 35 sec) 
Heartbeat CPU 0 instructions: 22000002 cycles: 29790954 heartbeat IPC: 0.416174 cumulative IPC: 0.509806 (Simulation time: 0 hr 17 min 24 sec) 
Heartbeat CPU 0 instructions: 23000000 cycles: 32232397 heartbeat IPC: 0.409593 cumulative IPC: 0.500389 (Simulation time: 0 hr 18 min 16 sec) 
Heartbeat CPU 0 instructions: 24000000 cycles: 34673687 heartbeat IPC: 0.40962 cumulative IPC: 0.492592 (Simulation time: 0 hr 19 min 11 sec) 
Heartbeat CPU 0 instructions: 25000000 cycles: 37094330 heartbeat IPC: 0.413113 cumulative IPC: 0.486354 (Simulation time: 0 hr 20 min 2 sec) 
Heartbeat CPU 0 instructions: 26000002 cycles: 39380641 heartbeat IPC: 0.437387 cumulative IPC: 0.482974 (Simulation time: 0 hr 21 min 3 sec) 
Heartbeat CPU 0 instructions: 27000001 cycles: 41725477 heartbeat IPC: 0.426469 cumulative IPC: 0.479239 (Simulation time: 0 hr 21 min 59 sec) 
Heartbeat CPU 0 instructions: 28000000 cycles: 44107907 heartbeat IPC: 0.419739 cumulative IPC: 0.475495 (Simulation time: 0 hr 22 min 57 sec) 
Heartbeat CPU 0 instructions: 29000000 cycles: 46473868 heartbeat IPC: 0.422661 cumulative IPC: 0.472387 (Simulation time: 0 hr 23 min 53 sec) 
Heartbeat CPU 0 instructions: 30000000 cycles: 47902230 heartbeat IPC: 0.700103 cumulative IPC: 0.480196 (Simulation time: 0 hr 24 min 44 sec) 
Heartbeat CPU 0 instructions: 31000002 cycles: 49241084 heartbeat IPC: 0.746909 cumulative IPC: 0.488503 (Simulation time: 0 hr 25 min 27 sec) 
Heartbeat CPU 0 instructions: 32000000 cycles: 50600360 heartbeat IPC: 0.735684 cumulative IPC: 0.496079 (Simulation time: 0 hr 26 min 18 sec) 
Heartbeat CPU 0 instructions: 33000001 cycles: 51940492 heartbeat IPC: 0.746196 cumulative IPC: 0.503416 (Simulation time: 0 hr 27 min 7 sec) 
Heartbeat CPU 0 instructions: 34000003 cycles: 53302800 heartbeat IPC: 0.73405 cumulative IPC: 0.510093 (Simulation time: 0 hr 27 min 55 sec) 
Heartbeat CPU 0 instructions: 35000000 cycles: 54635465 heartbeat IPC: 0.750374 cumulative IPC: 0.516712 (Simulation time: 0 hr 28 min 45 sec) 
Heartbeat CPU 0 instructions: 36000000 cycles: 56019827 heartbeat IPC: 0.722354 cumulative IPC: 0.522432 (Simulation time: 0 hr 29 min 30 sec) 
Heartbeat CPU 0 instructions: 37000003 cycles: 57371377 heartbeat IPC: 0.739893 cumulative IPC: 0.528182 (Simulation time: 0 hr 30 min 14 sec) 
Heartbeat CPU 0 instructions: 38000000 cycles: 58718489 heartbeat IPC: 0.742327 cumulative IPC: 0.53368 (Simulation time: 0 hr 31 min 4 sec) 
Heartbeat CPU 0 instructions: 39000001 cycles: 60066186 heartbeat IPC: 0.742007 cumulative IPC: 0.538897 (Simulation time: 0 hr 31 min 49 sec) 
Heartbeat CPU 0 instructions: 40000000 cycles: 61381056 heartbeat IPC: 0.760531 cumulative IPC: 0.544183 (Simulation time: 0 hr 32 min 38 sec) 
Heartbeat CPU 0 instructions: 41000002 cycles: 62744794 heartbeat IPC: 0.73328 cumulative IPC: 0.548748 (Simulation time: 0 hr 33 min 24 sec) 
Heartbeat CPU 0 instructions: 42000002 cycles: 64083749 heartbeat IPC: 0.746851 cumulative IPC: 0.553335 (Simulation time: 0 hr 34 min 12 sec) 
Heartbeat CPU 0 instructions: 43000002 cycles: 65456695 heartbeat IPC: 0.728361 cumulative IPC: 0.557394 (Simulation time: 0 hr 34 min 58 sec) 
Heartbeat CPU 0 instructions: 44000000 cycles: 66792910 heartbeat IPC: 0.748381 cumulative IPC: 0.561609 (Simulation time: 0 hr 35 min 40 sec) 
Heartbeat CPU 0 instructions: 45000003 cycles: 68153320 heartbeat IPC: 0.735075 cumulative IPC: 0.565421 (Simulation time: 0 hr 36 min 30 sec) 
Heartbeat CPU 0 instructions: 46000001 cycles: 69553682 heartbeat IPC: 0.7141 cumulative IPC: 0.568711 (Simulation time: 0 hr 37 min 17 sec) 
Heartbeat CPU 0 instructions: 47000000 cycles: 70889705 heartbeat IPC: 0.748489 cumulative IPC: 0.572426 (Simulation time: 0 hr 38 min 6 sec) 
Heartbeat CPU 0 instructions: 48000000 cycles: 72275968 heartbeat IPC: 0.721364 cumulative IPC: 0.575554 (Simulation time: 0 hr 38 min 52 sec) 
Heartbeat CPU 0 instructions: 49000001 cycles: 73609065 heartbeat IPC: 0.750134 cumulative IPC: 0.579009 (Simulation time: 0 hr 39 min 41 sec) 
Heartbeat CPU 0 instructions: 50000001 cycles: 74970093 heartbeat IPC: 0.734739 cumulative IPC: 0.582093 (Simulation time: 0 hr 40 min 32 sec) 
Heartbeat CPU 0 instructions: 51000003 cycles: 76298848 heartbeat IPC: 0.752586 cumulative IPC: 0.585328 (Simulation time: 0 hr 41 min 21 sec) 
Heartbeat CPU 0 instructions: 52000000 cycles: 77615023 heartbeat IPC: 0.759775 cumulative IPC: 0.588545 (Simulation time: 0 hr 42 min 4 sec) 
Heartbeat CPU 0 instructions: 53000002 cycles: 78986322 heartbeat IPC: 0.729237 cumulative IPC: 0.591197 (Simulation time: 0 hr 42 min 49 sec) 
Heartbeat CPU 0 instructions: 54000001 cycles: 80308686 heartbeat IPC: 0.756221 cumulative IPC: 0.594144 (Simulation time: 0 hr 43 min 37 sec) 
Heartbeat CPU 0 instructions: 55000000 cycles: 81677146 heartbeat IPC: 0.730748 cumulative IPC: 0.596623 (Simulation time: 0 hr 44 min 24 sec) 
Heartbeat CPU 0 instructions: 56000000 cycles: 83018252 heartbeat IPC: 0.745653 cumulative IPC: 0.599226 (Simulation time: 0 hr 45 min 12 sec) 
Heartbeat CPU 0 instructions: 57000000 cycles: 84376958 heartbeat IPC: 0.735994 cumulative IPC: 0.601605 (Simulation time: 0 hr 45 min 55 sec) 
Heartbeat CPU 0 instructions: 58000001 cycles: 85717939 heartbeat IPC: 0.745723 cumulative IPC: 0.604037 (Simulation time: 0 hr 46 min 46 sec) 
Heartbeat CPU 0 instructions: 59000003 cycles: 87024031 heartbeat IPC: 0.765644 cumulative IPC: 0.60665 (Simulation time: 0 hr 47 min 33 sec) 
Heartbeat CPU 0 instructions: 60000000 cycles: 88379491 heartbeat IPC: 0.737755 cumulative IPC: 0.608814 (Simulation time: 0 hr 48 min 17 sec) 
Heartbeat CPU 0 instructions: 61000001 cycles: 89710857 heartbeat IPC: 0.751109 cumulative IPC: 0.611084 (Simulation time: 0 hr 49 min 2 sec) 
Heartbeat CPU 0 instructions: 62000000 cycles: 91049778 heartbeat IPC: 0.746869 cumulative IPC: 0.613228 (Simulation time: 0 hr 49 min 53 sec) 
Heartbeat CPU 0 instructions: 63000000 cycles: 92377276 heartbeat IPC: 0.753297 cumulative IPC: 0.615387 (Simulation time: 0 hr 50 min 41 sec) 
Heartbeat CPU 0 instructions: 64000000 cycles: 93724439 heartbeat IPC: 0.742301 cumulative IPC: 0.617341 (Simulation time: 0 hr 51 min 27 sec) 
Heartbeat CPU 0 instructions: 65000000 cycles: 95078921 heartbeat IPC: 0.73829 cumulative IPC: 0.619186 (Simulation time: 0 hr 52 min 15 sec) 
Heartbeat CPU 0 instructions: 66000000 cycles: 96431979 heartbeat IPC: 0.739067 cumulative IPC: 0.620984 (Simulation time: 0 hr 53 min 5 sec) 
Heartbeat CPU 0 instructions: 67000003 cycles: 97784093 heartbeat IPC: 0.739585 cumulative IPC: 0.622736 (Simulation time: 0 hr 53 min 51 sec) 
Heartbeat CPU 0 instructions: 68000000 cycles: 99126706 heartbeat IPC: 0.744814 cumulative IPC: 0.624501 (Simulation time: 0 hr 54 min 39 sec) 
Heartbeat CPU 0 instructions: 69000000 cycles: 100468172 heartbeat IPC: 0.745453 cumulative IPC: 0.626223 (Simulation time: 0 hr 55 min 19 sec) 
Heartbeat CPU 0 instructions: 70000001 cycles: 101798480 heartbeat IPC: 0.751706 cumulative IPC: 0.62797 (Simulation time: 0 hr 56 min 0 sec) 
Heartbeat CPU 0 instructions: 71000002 cycles: 103153013 heartbeat IPC: 0.738263 cumulative IPC: 0.629512 (Simulation time: 0 hr 56 min 39 sec) 
Heartbeat CPU 0 instructions: 72000000 cycles: 104480513 heartbeat IPC: 0.753294 cumulative IPC: 0.631185 (Simulation time: 0 hr 57 min 20 sec) 
Heartbeat CPU 0 instructions: 73000000 cycles: 105825968 heartbeat IPC: 0.743243 cumulative IPC: 0.632699 (Simulation time: 0 hr 58 min 3 sec) 
Heartbeat CPU 0 instructions: 74000000 cycles: 107154926 heartbeat IPC: 0.752469 cumulative IPC: 0.634277 (Simulation time: 0 hr 58 min 47 sec) 
Heartbeat CPU 0 instructions: 75000002 cycles: 108475371 heartbeat IPC: 0.757322 cumulative IPC: 0.635866 (Simulation time: 0 hr 59 min 35 sec) 
Heartbeat CPU 0 instructions: 76000000 cycles: 109826022 heartbeat IPC: 0.740382 cumulative IPC: 0.637229 (Simulation time: 1 hr 0 min 17 sec) 
Heartbeat CPU 0 instructions: 77000000 cycles: 111148661 heartbeat IPC: 0.756064 cumulative IPC: 0.638727 (Simulation time: 1 hr 1 min 3 sec) 
Heartbeat CPU 0 instructions: 78000003 cycles: 112528780 heartbeat IPC: 0.724577 cumulative IPC: 0.639842 (Simulation time: 1 hr 1 min 49 sec) 
Heartbeat CPU 0 instructions: 79000000 cycles: 114015187 heartbeat IPC: 0.672761 cumulative IPC: 0.640296 (Simulation time: 1 hr 2 min 30 sec) 
Heartbeat CPU 0 instructions: 80000000 cycles: 115612895 heartbeat IPC: 0.625897 cumulative IPC: 0.640086 (Simulation time: 1 hr 3 min 6 sec) 
Heartbeat CPU 0 instructions: 81000002 cycles: 117201589 heartbeat IPC: 0.629449 cumulative IPC: 0.639934 (Simulation time: 1 hr 3 min 39 sec) 
Heartbeat CPU 0 instructions: 82000003 cycles: 118862999 heartbeat IPC: 0.601899 cumulative IPC: 0.639373 (Simulation time: 1 hr 4 min 19 sec) 
Heartbeat CPU 0 instructions: 83000002 cycles: 120539526 heartbeat IPC: 0.596471 cumulative IPC: 0.638743 (Simulation time: 1 hr 4 min 56 sec) 
Heartbeat CPU 0 instructions: 84000000 cycles: 122162461 heartbeat IPC: 0.616166 cumulative IPC: 0.638427 (Simulation time: 1 hr 5 min 27 sec) 
Heartbeat CPU 0 instructions: 85000001 cycles: 123824035 heartbeat IPC: 0.60184 cumulative IPC: 0.63791 (Simulation time: 1 hr 5 min 55 sec) 
Heartbeat CPU 0 instructions: 86000002 cycles: 125455745 heartbeat IPC: 0.612855 cumulative IPC: 0.637567 (Simulation time: 1 hr 6 min 30 sec) 
Heartbeat CPU 0 instructions: 87000000 cycles: 127099694 heartbeat IPC: 0.60829 cumulative IPC: 0.637169 (Simulation time: 1 hr 6 min 57 sec) 
Heartbeat CPU 0 instructions: 88000000 cycles: 128765105 heartbeat IPC: 0.600452 cumulative IPC: 0.63667 (Simulation time: 1 hr 7 min 27 sec) 
Heartbeat CPU 0 instructions: 89000002 cycles: 130393106 heartbeat IPC: 0.614251 cumulative IPC: 0.636376 (Simulation time: 1 hr 7 min 57 sec) 
Heartbeat CPU 0 instructions: 90000001 cycles: 132032164 heartbeat IPC: 0.610106 cumulative IPC: 0.636033 (Simulation time: 1 hr 8 min 22 sec) 
Heartbeat CPU 0 instructions: 91000003 cycles: 133679135 heartbeat IPC: 0.607176 cumulative IPC: 0.63566 (Simulation time: 1 hr 8 min 53 sec) 
Heartbeat CPU 0 instructions: 92000000 cycles: 135327743 heartbeat IPC: 0.606571 cumulative IPC: 0.635289 (Simulation time: 1 hr 9 min 20 sec) 
Heartbeat CPU 0 instructions: 93000001 cycles: 137005895 heartbeat IPC: 0.595894 cumulative IPC: 0.634783 (Simulation time: 1 hr 9 min 49 sec) 
Heartbeat CPU 0 instructions: 94000003 cycles: 138652970 heartbeat IPC: 0.607138 cumulative IPC: 0.634439 (Simulation time: 1 hr 10 min 16 sec) 
Heartbeat CPU 0 instructions: 95000002 cycles: 140349765 heartbeat IPC: 0.589346 cumulative IPC: 0.633869 (Simulation time: 1 hr 10 min 38 sec) 
Heartbeat CPU 0 instructions: 96000000 cycles: 141998674 heartbeat IPC: 0.60646 cumulative IPC: 0.633536 (Simulation time: 1 hr 11 min 0 sec) 
Heartbeat CPU 0 instructions: 97000003 cycles: 144015631 heartbeat IPC: 0.495798 cumulative IPC: 0.631519 (Simulation time: 1 hr 11 min 20 sec) 
Heartbeat CPU 0 instructions: 98000002 cycles: 149727196 heartbeat IPC: 0.175083 cumulative IPC: 0.613349 (Simulation time: 1 hr 11 min 57 sec) 
Heartbeat CPU 0 instructions: 99000000 cycles: 152891523 heartbeat IPC: 0.316022 cumulative IPC: 0.606933 (Simulation time: 1 hr 12 min 27 sec) 
Heartbeat CPU 0 instructions: 100000000 cycles: 154506380 heartbeat IPC: 0.61925 cumulative IPC: 0.607067 (Simulation time: 1 hr 12 min 43 sec) 
Heartbeat CPU 0 instructions: 101000002 cycles: 155769711 heartbeat IPC: 0.79156 cumulative IPC: 0.608626 (Simulation time: 1 hr 12 min 55 sec) 
Heartbeat CPU 0 instructions: 102000003 cycles: 157165093 heartbeat IPC: 0.71665 cumulative IPC: 0.609625 (Simulation time: 1 hr 13 min 9 sec) 
Heartbeat CPU 0 instructions: 103000002 cycles: 158618752 heartbeat IPC: 0.687919 cumulative IPC: 0.610372 (Simulation time: 1 hr 13 min 23 sec) 
Heartbeat CPU 0 instructions: 104000000 cycles: 160096275 heartbeat IPC: 0.676807 cumulative IPC: 0.61101 (Simulation time: 1 hr 13 min 36 sec) 
Heartbeat CPU 0 instructions: 105000001 cycles: 161634974 heartbeat IPC: 0.6499 cumulative IPC: 0.611395 (Simulation time: 1 hr 13 min 49 sec) 
Heartbeat CPU 0 instructions: 106000001 cycles: 163180210 heartbeat IPC: 0.64715 cumulative IPC: 0.611747 (Simulation time: 1 hr 14 min 2 sec) 
Heartbeat CPU 0 instructions: 107000001 cycles: 164712929 heartbeat IPC: 0.652435 cumulative IPC: 0.612141 (Simulation time: 1 hr 14 min 14 sec) 
Heartbeat CPU 0 instructions: 108000000 cycles: 166251420 heartbeat IPC: 0.649987 cumulative IPC: 0.612504 (Simulation time: 1 hr 14 min 26 sec) 
Heartbeat CPU 0 instructions: 109000001 cycles: 167760516 heartbeat IPC: 0.662649 cumulative IPC: 0.612973 (Simulation time: 1 hr 14 min 36 sec) 
Heartbeat CPU 0 instructions: 110000001 cycles: 169281716 heartbeat IPC: 0.657376 cumulative IPC: 0.613387 (Simulation time: 1 hr 14 min 46 sec) 
Finished CPU 0 instructions: 100000000 cycles: 163029129 cummulative IPC: 0.613387 (Simulation time: 1 hr 14 min 46 sec) 

ChampSim completed all CPUs

Region of Interest Statistics

CPU 0 cummulative IPC: 0.613387 instructions: 100000000 cycles: 163029129
LLC TOTAL     ACCESS:    4606811  HIT:    1105822  MISS:    3500989
LLC LOAD      ACCESS:     464569  HIT:      59161  MISS:     405408
LLC RFO       ACCESS:     743662  HIT:      96151  MISS:     647511
LLC PREFETCH  ACCESS:    2298791  HIT:     159183  MISS:    2139608
LLC WRITEBACK ACCESS:    1099789  HIT:     791327  MISS:     308462
