
*** ChampSim Multicore Out-of-Order Simulator ***

Warmup Instructions: 10000000
Simulation Instructions: 100000000
Configuration: 2
Number of CPUs: 1
LLC sets: 2048
LLC ways: 16
Off-chip DRAM Channels: 1 Width: 64-bit Data Rate: 1600 MT/s

CPU 0 runs /datasets/cs240c-wi22-a00-public/data/Assignment2-gz/wrf_1228B.trace.gz
CPU 0 L1D next line prefetcher
CPU 0 L2C IP-based stride prefetcher
Heartbeat CPU 0 instructions: 1000003 cycles: 591062 heartbeat IPC: 1.69187 cumulative IPC: 1.69187 (Simulation time: 0 hr 0 min 41 sec) 
Heartbeat CPU 0 instructions: 2000002 cycles: 1111152 heartbeat IPC: 1.92274 cumulative IPC: 1.79994 (Simulation time: 0 hr 1 min 19 sec) 
Heartbeat CPU 0 instructions: 3000000 cycles: 1729111 heartbeat IPC: 1.61823 cumulative IPC: 1.735 (Simulation time: 0 hr 2 min 6 sec) 
Heartbeat CPU 0 instructions: 4000000 cycles: 2349763 heartbeat IPC: 1.61121 cumulative IPC: 1.7023 (Simulation time: 0 hr 2 min 55 sec) 
Heartbeat CPU 0 instructions: 5000000 cycles: 3052127 heartbeat IPC: 1.42376 cumulative IPC: 1.6382 (Simulation time: 0 hr 3 min 39 sec) 
Heartbeat CPU 0 instructions: 6000000 cycles: 3612217 heartbeat IPC: 1.78543 cumulative IPC: 1.66103 (Simulation time: 0 hr 4 min 19 sec) 
Heartbeat CPU 0 instructions: 7000001 cycles: 4164978 heartbeat IPC: 1.8091 cumulative IPC: 1.68068 (Simulation time: 0 hr 5 min 0 sec) 
Heartbeat CPU 0 instructions: 8000000 cycles: 4716342 heartbeat IPC: 1.81368 cumulative IPC: 1.69623 (Simulation time: 0 hr 5 min 42 sec) 
Heartbeat CPU 0 instructions: 9000002 cycles: 5266532 heartbeat IPC: 1.81756 cumulative IPC: 1.7089 (Simulation time: 0 hr 6 min 20 sec) 
Heartbeat CPU 0 instructions: 10000001 cycles: 5819428 heartbeat IPC: 1.80866 cumulative IPC: 1.71838 (Simulation time: 0 hr 6 min 58 sec) 

Warmup complete CPU 0 instructions: 10000001 cycles: 5819428 (Simulation time: 0 hr 6 min 58 sec) 

Heartbeat CPU 0 instructions: 11000000 cycles: 6678837 heartbeat IPC: 1.16359 cumulative IPC: 1.16359 (Simulation time: 0 hr 7 min 37 sec) 
Heartbeat CPU 0 instructions: 12000000 cycles: 7552568 heartbeat IPC: 1.14452 cumulative IPC: 1.15397 (Simulation time: 0 hr 8 min 15 sec) 
Heartbeat CPU 0 instructions: 13000003 cycles: 8432789 heartbeat IPC: 1.13608 cumulative IPC: 1.14795 (Simulation time: 0 hr 8 min 55 sec) 
Heartbeat CPU 0 instructions: 14000002 cycles: 9315013 heartbeat IPC: 1.1335 cumulative IPC: 1.1443 (Simulation time: 0 hr 9 min 28 sec) 
Heartbeat CPU 0 instructions: 15000001 cycles: 10147993 heartbeat IPC: 1.20051 cumulative IPC: 1.15512 (Simulation time: 0 hr 10 min 1 sec) 
Heartbeat CPU 0 instructions: 16000000 cycles: 10969680 heartbeat IPC: 1.21701 cumulative IPC: 1.16499 (Simulation time: 0 hr 10 min 37 sec) 
Heartbeat CPU 0 instructions: 17000002 cycles: 11794674 heartbeat IPC: 1.21213 cumulative IPC: 1.1715 (Simulation time: 0 hr 11 min 10 sec) 
Heartbeat CPU 0 instructions: 18000003 cycles: 12595343 heartbeat IPC: 1.24896 cumulative IPC: 1.18065 (Simulation time: 0 hr 11 min 46 sec) 
Heartbeat CPU 0 instructions: 19000000 cycles: 13390076 heartbeat IPC: 1.25828 cumulative IPC: 1.1888 (Simulation time: 0 hr 12 min 25 sec) 
Heartbeat CPU 0 instructions: 20000000 cycles: 14175974 heartbeat IPC: 1.27243 cumulative IPC: 1.19667 (Simulation time: 0 hr 12 min 57 sec) 
Heartbeat CPU 0 instructions: 21000000 cycles: 14949480 heartbeat IPC: 1.29281 cumulative IPC: 1.20481 (Simulation time: 0 hr 13 min 33 sec) 
Heartbeat CPU 0 instructions: 22000000 cycles: 15756522 heartbeat IPC: 1.23909 cumulative IPC: 1.2076 (Simulation time: 0 hr 14 min 6 sec) 
Heartbeat CPU 0 instructions: 23000003 cycles: 16702791 heartbeat IPC: 1.05679 cumulative IPC: 1.19448 (Simulation time: 0 hr 14 min 41 sec) 
Heartbeat CPU 0 instructions: 24000000 cycles: 17624239 heartbeat IPC: 1.08525 cumulative IPC: 1.18596 (Simulation time: 0 hr 15 min 21 sec) 
Heartbeat CPU 0 instructions: 25000000 cycles: 18548342 heartbeat IPC: 1.08213 cumulative IPC: 1.17842 (Simulation time: 0 hr 16 min 5 sec) 
Heartbeat CPU 0 instructions: 26000003 cycles: 19462831 heartbeat IPC: 1.09351 cumulative IPC: 1.17273 (Simulation time: 0 hr 16 min 43 sec) 
Heartbeat CPU 0 instructions: 27000003 cycles: 20374823 heartbeat IPC: 1.0965 cumulative IPC: 1.16795 (Simulation time: 0 hr 17 min 26 sec) 
Heartbeat CPU 0 instructions: 28000000 cycles: 21280107 heartbeat IPC: 1.10462 cumulative IPC: 1.16424 (Simulation time: 0 hr 18 min 4 sec) 
Heartbeat CPU 0 instructions: 29000003 cycles: 22984408 heartbeat IPC: 0.586753 cumulative IPC: 1.1069 (Simulation time: 0 hr 18 min 51 sec) 
Heartbeat CPU 0 instructions: 30000000 cycles: 24712171 heartbeat IPC: 0.578781 cumulative IPC: 1.05861 (Simulation time: 0 hr 19 min 41 sec) 
Heartbeat CPU 0 instructions: 31000003 cycles: 26513980 heartbeat IPC: 0.554999 cumulative IPC: 1.01476 (Simulation time: 0 hr 20 min 31 sec) 
Heartbeat CPU 0 instructions: 32000000 cycles: 28148313 heartbeat IPC: 0.611869 cumulative IPC: 0.985271 (Simulation time: 0 hr 21 min 16 sec) 
Heartbeat CPU 0 instructions: 33000002 cycles: 29547873 heartbeat IPC: 0.714512 cumulative IPC: 0.969301 (Simulation time: 0 hr 21 min 58 sec) 
Heartbeat CPU 0 instructions: 34000002 cycles: 30948314 heartbeat IPC: 0.714061 cumulative IPC: 0.955076 (Simulation time: 0 hr 22 min 43 sec) 
Heartbeat CPU 0 instructions: 35000001 cycles: 32632449 heartbeat IPC: 0.593776 cumulative IPC: 0.932383 (Simulation time: 0 hr 23 min 36 sec) 
Heartbeat CPU 0 instructions: 36000000 cycles: 33606963 heartbeat IPC: 1.02615 cumulative IPC: 0.935671 (Simulation time: 0 hr 24 min 18 sec) 
Heartbeat CPU 0 instructions: 37000001 cycles: 34569149 heartbeat IPC: 1.0393 cumulative IPC: 0.93914 (Simulation time: 0 hr 24 min 58 sec) 
Heartbeat CPU 0 instructions: 38000003 cycles: 35510459 heartbeat IPC: 1.06235 cumulative IPC: 0.943046 (Simulation time: 0 hr 25 min 42 sec) 
Heartbeat CPU 0 instructions: 39000002 cycles: 36489550 heartbeat IPC: 1.02135 cumulative IPC: 0.945546 (Simulation time: 0 hr 26 min 23 sec) 
Heartbeat CPU 0 instructions: 40000000 cycles: 37433943 heartbeat IPC: 1.05888 cumulative IPC: 0.948931 (Simulation time: 0 hr 27 min 2 sec) 
Heartbeat CPU 0 instructions: 41000000 cycles: 38385931 heartbeat IPC: 1.05043 cumulative IPC: 0.951898 (Simulation time: 0 hr 27 min 41 sec) 
Heartbeat CPU 0 instructions: 42000002 cycles: 39331404 heartbeat IPC: 1.05767 cumulative IPC: 0.954883 (Simulation time: 0 hr 28 min 20 sec) 
Heartbeat CPU 0 instructions: 43000002 cycles: 40291938 heartbeat IPC: 1.04109 cumulative IPC: 0.957285 (Simulation time: 0 hr 28 min 59 sec) 
Heartbeat CPU 0 instructions: 44000000 cycles: 41190238 heartbeat IPC: 1.11321 cumulative IPC: 0.961245 (Simulation time: 0 hr 29 min 38 sec) 
Heartbeat CPU 0 instructions: 45000000 cycles: 42080714 heartbeat IPC: 1.12299 cumulative IPC: 0.965217 (Simulation time: 0 hr 30 min 15 sec) 
Heartbeat CPU 0 instructions: 46000001 cycles: 42966572 heartbeat IPC: 1.12885 cumulative IPC: 0.969119 (Simulation time: 0 hr 30 min 53 sec) 
Heartbeat CPU 0 instructions: 47000001 cycles: 43857852 heartbeat IPC: 1.12198 cumulative IPC: 0.972701 (Simulation time: 0 hr 31 min 35 sec) 
Heartbeat CPU 0 instructions: 48000000 cycles: 44744640 heartbeat IPC: 1.12766 cumulative IPC: 0.976231 (Simulation time: 0 hr 32 min 18 sec) 
Heartbeat CPU 0 instructions: 49000001 cycles: 45632171 heartbeat IPC: 1.12672 cumulative IPC: 0.979586 (Simulation time: 0 hr 33 min 0 sec) 
Heartbeat CPU 0 instructions: 50000002 cycles: 46529577 heartbeat IPC: 1.11432 cumulative IPC: 0.982556 (Simulation time: 0 hr 33 min 36 sec) 
Heartbeat CPU 0 instructions: 51000001 cycles: 47416104 heartbeat IPC: 1.128 cumulative IPC: 0.985656 (Simulation time: 0 hr 34 min 12 sec) 
Heartbeat CPU 0 instructions: 52000000 cycles: 48357179 heartbeat IPC: 1.06261 cumulative IPC: 0.987358 (Simulation time: 0 hr 34 min 48 sec) 
Heartbeat CPU 0 instructions: 53000002 cycles: 49356134 heartbeat IPC: 1.00105 cumulative IPC: 0.987672 (Simulation time: 0 hr 35 min 29 sec) 
Heartbeat CPU 0 instructions: 54000001 cycles: 50364442 heartbeat IPC: 0.991759 cumulative IPC: 0.987765 (Simulation time: 0 hr 36 min 6 sec) 
Heartbeat CPU 0 instructions: 55000003 cycles: 51357237 heartbeat IPC: 1.00726 cumulative IPC: 0.98819 (Simulation time: 0 hr 36 min 44 sec) 
Heartbeat CPU 0 instructions: 56000000 cycles: 52366711 heartbeat IPC: 0.990612 cumulative IPC: 0.988242 (Simulation time: 0 hr 37 min 19 sec) 
Heartbeat CPU 0 instructions: 57000001 cycles: 53358674 heartbeat IPC: 1.0081 cumulative IPC: 0.988657 (Simulation time: 0 hr 38 min 1 sec) 
Heartbeat CPU 0 instructions: 58000000 cycles: 54350753 heartbeat IPC: 1.00798 cumulative IPC: 0.989052 (Simulation time: 0 hr 38 min 47 sec) 
Heartbeat CPU 0 instructions: 59000001 cycles: 55842136 heartbeat IPC: 0.670519 cumulative IPC: 0.979555 (Simulation time: 0 hr 39 min 35 sec) 
Heartbeat CPU 0 instructions: 60000000 cycles: 57358495 heartbeat IPC: 0.659474 cumulative IPC: 0.970138 (Simulation time: 0 hr 40 min 20 sec) 
Heartbeat CPU 0 instructions: 61000000 cycles: 59346974 heartbeat IPC: 0.502897 cumulative IPC: 0.95278 (Simulation time: 0 hr 41 min 8 sec) 
Heartbeat CPU 0 instructions: 62000000 cycles: 60904435 heartbeat IPC: 0.642071 cumulative IPC: 0.943995 (Simulation time: 0 hr 41 min 54 sec) 
Heartbeat CPU 0 instructions: 63000001 cycles: 62342831 heartbeat IPC: 0.69522 cumulative IPC: 0.937665 (Simulation time: 0 hr 42 min 38 sec) 
Heartbeat CPU 0 instructions: 64000000 cycles: 63780457 heartbeat IPC: 0.69559 cumulative IPC: 0.93166 (Simulation time: 0 hr 43 min 22 sec) 
Heartbeat CPU 0 instructions: 65000003 cycles: 65275284 heartbeat IPC: 0.668976 cumulative IPC: 0.925056 (Simulation time: 0 hr 44 min 9 sec) 
Heartbeat CPU 0 instructions: 66000000 cycles: 66770719 heartbeat IPC: 0.6687 cumulative IPC: 0.918766 (Simulation time: 0 hr 44 min 59 sec) 
Heartbeat CPU 0 instructions: 67000000 cycles: 68265240 heartbeat IPC: 0.669111 cumulative IPC: 0.912791 (Simulation time: 0 hr 45 min 47 sec) 
Heartbeat CPU 0 instructions: 68000000 cycles: 69759697 heartbeat IPC: 0.669139 cumulative IPC: 0.907097 (Simulation time: 0 hr 46 min 33 sec) 
Heartbeat CPU 0 instructions: 69000000 cycles: 71266941 heartbeat IPC: 0.663463 cumulative IPC: 0.901486 (Simulation time: 0 hr 47 min 21 sec) 
Heartbeat CPU 0 instructions: 70000001 cycles: 72763779 heartbeat IPC: 0.668076 cumulative IPC: 0.896267 (Simulation time: 0 hr 48 min 0 sec) 
Heartbeat CPU 0 instructions: 71000001 cycles: 74257809 heartbeat IPC: 0.669331 cumulative IPC: 0.891313 (Simulation time: 0 hr 48 min 45 sec) 
Heartbeat CPU 0 instructions: 72000000 cycles: 75740760 heartbeat IPC: 0.67433 cumulative IPC: 0.886711 (Simulation time: 0 hr 49 min 35 sec) 
Heartbeat CPU 0 instructions: 73000003 cycles: 77228468 heartbeat IPC: 0.672177 cumulative IPC: 0.882241 (Simulation time: 0 hr 50 min 18 sec) 
Heartbeat CPU 0 instructions: 74000000 cycles: 78725998 heartbeat IPC: 0.667764 cumulative IPC: 0.877836 (Simulation time: 0 hr 51 min 2 sec) 
Heartbeat CPU 0 instructions: 75000001 cycles: 80219975 heartbeat IPC: 0.669355 cumulative IPC: 0.873649 (Simulation time: 0 hr 51 min 50 sec) 
Heartbeat CPU 0 instructions: 76000000 cycles: 81716516 heartbeat IPC: 0.668207 cumulative IPC: 0.869599 (Simulation time: 0 hr 52 min 35 sec) 
Heartbeat CPU 0 instructions: 77000003 cycles: 83210809 heartbeat IPC: 0.669215 cumulative IPC: 0.86573 (Simulation time: 0 hr 53 min 18 sec) 
Heartbeat CPU 0 instructions: 78000001 cycles: 84705503 heartbeat IPC: 0.669032 cumulative IPC: 0.862003 (Simulation time: 0 hr 54 min 7 sec) 
Heartbeat CPU 0 instructions: 79000000 cycles: 86202061 heartbeat IPC: 0.668199 cumulative IPC: 0.858394 (Simulation time: 0 hr 54 min 52 sec) 
Heartbeat CPU 0 instructions: 80000000 cycles: 87692442 heartbeat IPC: 0.670969 cumulative IPC: 0.854983 (Simulation time: 0 hr 55 min 31 sec) 
Heartbeat CPU 0 instructions: 81000001 cycles: 89176382 heartbeat IPC: 0.673882 cumulative IPC: 0.851759 (Simulation time: 0 hr 56 min 14 sec) 
Heartbeat CPU 0 instructions: 82000000 cycles: 90659533 heartbeat IPC: 0.67424 cumulative IPC: 0.848655 (Simulation time: 0 hr 57 min 0 sec) 
Heartbeat CPU 0 instructions: 83000000 cycles: 92142882 heartbeat IPC: 0.67415 cumulative IPC: 0.845657 (Simulation time: 0 hr 57 min 41 sec) 
Heartbeat CPU 0 instructions: 84000000 cycles: 93637792 heartbeat IPC: 0.668937 cumulative IPC: 0.842648 (Simulation time: 0 hr 58 min 23 sec) 
Heartbeat CPU 0 instructions: 85000000 cycles: 95132674 heartbeat IPC: 0.668949 cumulative IPC: 0.839741 (Simulation time: 0 hr 59 min 1 sec) 
Heartbeat CPU 0 instructions: 86000000 cycles: 96626473 heartbeat IPC: 0.669434 cumulative IPC: 0.836939 (Simulation time: 0 hr 59 min 41 sec) 
Heartbeat CPU 0 instructions: 87000000 cycles: 98121323 heartbeat IPC: 0.668963 cumulative IPC: 0.834219 (Simulation time: 1 hr 0 min 18 sec) 
Heartbeat CPU 0 instructions: 88000000 cycles: 99616543 heartbeat IPC: 0.668798 cumulative IPC: 0.831582 (Simulation time: 1 hr 0 min 57 sec) 
Heartbeat CPU 0 instructions: 89000002 cycles: 101112269 heartbeat IPC: 0.668573 cumulative IPC: 0.829023 (Simulation time: 1 hr 1 min 38 sec) 
Heartbeat CPU 0 instructions: 90000000 cycles: 102596604 heartbeat IPC: 0.673701 cumulative IPC: 0.826641 (Simulation time: 1 hr 2 min 16 sec) 
Heartbeat CPU 0 instructions: 91000000 cycles: 104080289 heartbeat IPC: 0.673998 cumulative IPC: 0.824336 (Simulation time: 1 hr 2 min 57 sec) 
Heartbeat CPU 0 instructions: 92000000 cycles: 105564132 heartbeat IPC: 0.673926 cumulative IPC: 0.822099 (Simulation time: 1 hr 3 min 33 sec) 
Heartbeat CPU 0 instructions: 93000000 cycles: 107053870 heartbeat IPC: 0.671259 cumulative IPC: 0.819879 (Simulation time: 1 hr 4 min 7 sec) 
Heartbeat CPU 0 instructions: 94000003 cycles: 108547727 heartbeat IPC: 0.66941 cumulative IPC: 0.817691 (Simulation time: 1 hr 4 min 44 sec) 
Heartbeat CPU 0 instructions: 95000000 cycles: 110043523 heartbeat IPC: 0.668538 cumulative IPC: 0.81555 (Simulation time: 1 hr 5 min 13 sec) 
Heartbeat CPU 0 instructions: 96000000 cycles: 111537469 heartbeat IPC: 0.669368 cumulative IPC: 0.813485 (Simulation time: 1 hr 5 min 41 sec) 
Heartbeat CPU 0 instructions: 97000001 cycles: 113033013 heartbeat IPC: 0.668654 cumulative IPC: 0.811464 (Simulation time: 1 hr 6 min 15 sec) 
Heartbeat CPU 0 instructions: 98000003 cycles: 114528372 heartbeat IPC: 0.668737 cumulative IPC: 0.809501 (Simulation time: 1 hr 6 min 45 sec) 
Heartbeat CPU 0 instructions: 99000000 cycles: 116017475 heartbeat IPC: 0.671543 cumulative IPC: 0.807637 (Simulation time: 1 hr 7 min 12 sec) 
Heartbeat CPU 0 instructions: 100000000 cycles: 117500870 heartbeat IPC: 0.674129 cumulative IPC: 0.805863 (Simulation time: 1 hr 7 min 38 sec) 
Heartbeat CPU 0 instructions: 101000000 cycles: 118984079 heartbeat IPC: 0.674214 cumulative IPC: 0.804138 (Simulation time: 1 hr 8 min 5 sec) 
Heartbeat CPU 0 instructions: 102000003 cycles: 120467663 heartbeat IPC: 0.674045 cumulative IPC: 0.802455 (Simulation time: 1 hr 8 min 29 sec) 
Heartbeat CPU 0 instructions: 103000003 cycles: 121963925 heartbeat IPC: 0.668332 cumulative IPC: 0.800727 (Simulation time: 1 hr 8 min 53 sec) 
Heartbeat CPU 0 instructions: 104000000 cycles: 123458465 heartbeat IPC: 0.6691 cumulative IPC: 0.799055 (Simulation time: 1 hr 9 min 17 sec) 
Heartbeat CPU 0 instructions: 105000000 cycles: 124953275 heartbeat IPC: 0.668981 cumulative IPC: 0.797422 (Simulation time: 1 hr 9 min 41 sec) 
Heartbeat CPU 0 instructions: 106000000 cycles: 126448340 heartbeat IPC: 0.668867 cumulative IPC: 0.795829 (Simulation time: 1 hr 10 min 5 sec) 
Heartbeat CPU 0 instructions: 107000000 cycles: 127944196 heartbeat IPC: 0.668514 cumulative IPC: 0.79427 (Simulation time: 1 hr 10 min 28 sec) 
Heartbeat CPU 0 instructions: 108000000 cycles: 129439778 heartbeat IPC: 0.668636 cumulative IPC: 0.79275 (Simulation time: 1 hr 10 min 50 sec) 
Heartbeat CPU 0 instructions: 109000003 cycles: 130922639 heartbeat IPC: 0.674374 cumulative IPC: 0.791347 (Simulation time: 1 hr 11 min 9 sec) 
Heartbeat CPU 0 instructions: 110000001 cycles: 132405848 heartbeat IPC: 0.674212 cumulative IPC: 0.789974 (Simulation time: 1 hr 11 min 27 sec) 
Finished CPU 0 instructions: 100000000 cycles: 126586420 cummulative IPC: 0.789974 (Simulation time: 1 hr 11 min 27 sec) 

ChampSim completed all CPUs

Region of Interest Statistics

CPU 0 cummulative IPC: 0.789974 instructions: 100000000 cycles: 126586420
LLC TOTAL     ACCESS:    1495379  HIT:     504282  MISS:     991097
LLC LOAD      ACCESS:      90281  HIT:      30252  MISS:      60029
LLC RFO       ACCESS:     219210  HIT:      55646  MISS:     163564
LLC PREFETCH  ACCESS:     749743  HIT:     158488  MISS:     591255
LLC WRITEBACK ACCESS:     436145  HIT:     259896  MISS:     176249
