
*** ChampSim Multicore Out-of-Order Simulator ***

Warmup Instructions: 10000000
Simulation Instructions: 100000000
Configuration: 2
Number of CPUs: 1
LLC sets: 2048
LLC ways: 16
Off-chip DRAM Channels: 1 Width: 64-bit Data Rate: 1600 MT/s

CPU 0 runs /datasets/cs240c-wi22-a00-public/data/Assignment2-gz/leslie3d_1186B.trace.gz
CPU 0 L1D next line prefetcher
CPU 0 L2C IP-based stride prefetcher
Heartbeat CPU 0 instructions: 1000002 cycles: 564518 heartbeat IPC: 1.77143 cumulative IPC: 1.77143 (Simulation time: 0 hr 0 min 49 sec) 
Heartbeat CPU 0 instructions: 2000000 cycles: 1215884 heartbeat IPC: 1.53523 cumulative IPC: 1.64489 (Simulation time: 0 hr 1 min 57 sec) 
Heartbeat CPU 0 instructions: 3000000 cycles: 1867642 heartbeat IPC: 1.53431 cumulative IPC: 1.6063 (Simulation time: 0 hr 3 min 1 sec) 
Heartbeat CPU 0 instructions: 4000000 cycles: 2473228 heartbeat IPC: 1.65129 cumulative IPC: 1.61732 (Simulation time: 0 hr 4 min 9 sec) 
Heartbeat CPU 0 instructions: 5000000 cycles: 3083572 heartbeat IPC: 1.63842 cumulative IPC: 1.6215 (Simulation time: 0 hr 5 min 22 sec) 
Heartbeat CPU 0 instructions: 6000000 cycles: 3735296 heartbeat IPC: 1.53439 cumulative IPC: 1.6063 (Simulation time: 0 hr 6 min 35 sec) 
Heartbeat CPU 0 instructions: 7000001 cycles: 4386527 heartbeat IPC: 1.53556 cumulative IPC: 1.5958 (Simulation time: 0 hr 7 min 44 sec) 
Heartbeat CPU 0 instructions: 8000000 cycles: 4951107 heartbeat IPC: 1.77123 cumulative IPC: 1.6158 (Simulation time: 0 hr 8 min 46 sec) 
Heartbeat CPU 0 instructions: 9000003 cycles: 5602395 heartbeat IPC: 1.53542 cumulative IPC: 1.60646 (Simulation time: 0 hr 10 min 0 sec) 
Heartbeat CPU 0 instructions: 10000001 cycles: 6253550 heartbeat IPC: 1.53573 cumulative IPC: 1.59909 (Simulation time: 0 hr 11 min 11 sec) 

Warmup complete CPU 0 instructions: 10000001 cycles: 6253550 (Simulation time: 0 hr 11 min 11 sec) 

Heartbeat CPU 0 instructions: 11000001 cycles: 7635417 heartbeat IPC: 0.723659 cumulative IPC: 0.723659 (Simulation time: 0 hr 12 min 27 sec) 
Heartbeat CPU 0 instructions: 12000000 cycles: 8889303 heartbeat IPC: 0.79752 cumulative IPC: 0.758796 (Simulation time: 0 hr 13 min 40 sec) 
Heartbeat CPU 0 instructions: 13000000 cycles: 10110883 heartbeat IPC: 0.818612 cumulative IPC: 0.777739 (Simulation time: 0 hr 14 min 56 sec) 
Heartbeat CPU 0 instructions: 14000000 cycles: 11365598 heartbeat IPC: 0.796994 cumulative IPC: 0.782465 (Simulation time: 0 hr 16 min 14 sec) 
Heartbeat CPU 0 instructions: 15000002 cycles: 12766117 heartbeat IPC: 0.714022 cumulative IPC: 0.767747 (Simulation time: 0 hr 17 min 24 sec) 
Heartbeat CPU 0 instructions: 16000000 cycles: 13986492 heartbeat IPC: 0.819419 cumulative IPC: 0.775901 (Simulation time: 0 hr 18 min 37 sec) 
Heartbeat CPU 0 instructions: 17000000 cycles: 15199106 heartbeat IPC: 0.824665 cumulative IPC: 0.782511 (Simulation time: 0 hr 19 min 46 sec) 
Heartbeat CPU 0 instructions: 18000001 cycles: 16610842 heartbeat IPC: 0.708348 cumulative IPC: 0.772403 (Simulation time: 0 hr 21 min 2 sec) 
Heartbeat CPU 0 instructions: 19000003 cycles: 17856352 heartbeat IPC: 0.802886 cumulative IPC: 0.775675 (Simulation time: 0 hr 22 min 21 sec) 
Heartbeat CPU 0 instructions: 20000000 cycles: 19094820 heartbeat IPC: 0.807447 cumulative IPC: 0.778739 (Simulation time: 0 hr 23 min 33 sec) 
Heartbeat CPU 0 instructions: 21000003 cycles: 20407920 heartbeat IPC: 0.761559 cumulative IPC: 0.777145 (Simulation time: 0 hr 24 min 51 sec) 
Heartbeat CPU 0 instructions: 22000003 cycles: 21721106 heartbeat IPC: 0.761507 cumulative IPC: 0.775818 (Simulation time: 0 hr 25 min 52 sec) 
Heartbeat CPU 0 instructions: 23000002 cycles: 22931315 heartbeat IPC: 0.826303 cumulative IPC: 0.779481 (Simulation time: 0 hr 27 min 1 sec) 
Heartbeat CPU 0 instructions: 24000000 cycles: 24135592 heartbeat IPC: 0.830372 cumulative IPC: 0.782908 (Simulation time: 0 hr 28 min 1 sec) 
Heartbeat CPU 0 instructions: 25000000 cycles: 25545096 heartbeat IPC: 0.709469 cumulative IPC: 0.777543 (Simulation time: 0 hr 28 min 51 sec) 
Heartbeat CPU 0 instructions: 26000000 cycles: 26763621 heartbeat IPC: 0.820664 cumulative IPC: 0.780105 (Simulation time: 0 hr 29 min 48 sec) 
Heartbeat CPU 0 instructions: 27000000 cycles: 27978738 heartbeat IPC: 0.822966 cumulative IPC: 0.782502 (Simulation time: 0 hr 30 min 40 sec) 
Heartbeat CPU 0 instructions: 28000000 cycles: 29370235 heartbeat IPC: 0.71865 cumulative IPC: 0.778658 (Simulation time: 0 hr 31 min 26 sec) 
Heartbeat CPU 0 instructions: 29000002 cycles: 30598983 heartbeat IPC: 0.813838 cumulative IPC: 0.780434 (Simulation time: 0 hr 32 min 13 sec) 
Heartbeat CPU 0 instructions: 30000002 cycles: 31809885 heartbeat IPC: 0.825831 cumulative IPC: 0.782585 (Simulation time: 0 hr 32 min 57 sec) 
Heartbeat CPU 0 instructions: 31000002 cycles: 33053030 heartbeat IPC: 0.804411 cumulative IPC: 0.783597 (Simulation time: 0 hr 33 min 40 sec) 
Heartbeat CPU 0 instructions: 32000000 cycles: 34419682 heartbeat IPC: 0.731714 cumulative IPC: 0.78108 (Simulation time: 0 hr 34 min 27 sec) 
Heartbeat CPU 0 instructions: 33000000 cycles: 35618121 heartbeat IPC: 0.834419 cumulative IPC: 0.783257 (Simulation time: 0 hr 35 min 14 sec) 
Heartbeat CPU 0 instructions: 34000000 cycles: 36825049 heartbeat IPC: 0.82855 cumulative IPC: 0.785045 (Simulation time: 0 hr 36 min 0 sec) 
Heartbeat CPU 0 instructions: 35000000 cycles: 38237772 heartbeat IPC: 0.707853 cumulative IPC: 0.781635 (Simulation time: 0 hr 36 min 44 sec) 
Heartbeat CPU 0 instructions: 36000000 cycles: 39460469 heartbeat IPC: 0.817864 cumulative IPC: 0.782969 (Simulation time: 0 hr 37 min 29 sec) 
Heartbeat CPU 0 instructions: 37000003 cycles: 40687075 heartbeat IPC: 0.81526 cumulative IPC: 0.78412 (Simulation time: 0 hr 38 min 17 sec) 
Heartbeat CPU 0 instructions: 38000003 cycles: 42024765 heartbeat IPC: 0.747557 cumulative IPC: 0.782752 (Simulation time: 0 hr 39 min 6 sec) 
Heartbeat CPU 0 instructions: 39000001 cycles: 43313160 heartbeat IPC: 0.776158 cumulative IPC: 0.782523 (Simulation time: 0 hr 39 min 49 sec) 
Heartbeat CPU 0 instructions: 40000000 cycles: 44530522 heartbeat IPC: 0.821448 cumulative IPC: 0.783761 (Simulation time: 0 hr 40 min 34 sec) 
Heartbeat CPU 0 instructions: 41000000 cycles: 45727976 heartbeat IPC: 0.835105 cumulative IPC: 0.785319 (Simulation time: 0 hr 41 min 20 sec) 
Heartbeat CPU 0 instructions: 42000000 cycles: 47144816 heartbeat IPC: 0.705796 cumulative IPC: 0.782563 (Simulation time: 0 hr 42 min 9 sec) 
Heartbeat CPU 0 instructions: 43000002 cycles: 48343518 heartbeat IPC: 0.834237 cumulative IPC: 0.784035 (Simulation time: 0 hr 42 min 55 sec) 
Heartbeat CPU 0 instructions: 44000000 cycles: 49553116 heartbeat IPC: 0.826719 cumulative IPC: 0.785227 (Simulation time: 0 hr 43 min 47 sec) 
Heartbeat CPU 0 instructions: 45000001 cycles: 51005118 heartbeat IPC: 0.688705 cumulative IPC: 0.782095 (Simulation time: 0 hr 44 min 34 sec) 
Heartbeat CPU 0 instructions: 46000001 cycles: 52933205 heartbeat IPC: 0.518649 cumulative IPC: 0.771214 (Simulation time: 0 hr 45 min 28 sec) 
Heartbeat CPU 0 instructions: 47000002 cycles: 54949612 heartbeat IPC: 0.495932 cumulative IPC: 0.759815 (Simulation time: 0 hr 46 min 25 sec) 
Heartbeat CPU 0 instructions: 48000000 cycles: 56997123 heartbeat IPC: 0.488397 cumulative IPC: 0.748863 (Simulation time: 0 hr 47 min 19 sec) 
Heartbeat CPU 0 instructions: 49000002 cycles: 59019394 heartbeat IPC: 0.494495 cumulative IPC: 0.739115 (Simulation time: 0 hr 48 min 9 sec) 
Heartbeat CPU 0 instructions: 50000002 cycles: 60998338 heartbeat IPC: 0.50532 cumulative IPC: 0.730663 (Simulation time: 0 hr 49 min 1 sec) 
Heartbeat CPU 0 instructions: 51000002 cycles: 62999083 heartbeat IPC: 0.499814 cumulative IPC: 0.722524 (Simulation time: 0 hr 49 min 51 sec) 
Heartbeat CPU 0 instructions: 52000000 cycles: 64961599 heartbeat IPC: 0.509549 cumulative IPC: 0.715404 (Simulation time: 0 hr 50 min 41 sec) 
Heartbeat CPU 0 instructions: 53000000 cycles: 66971164 heartbeat IPC: 0.49762 cumulative IPC: 0.708196 (Simulation time: 0 hr 51 min 31 sec) 
Heartbeat CPU 0 instructions: 54000003 cycles: 68943356 heartbeat IPC: 0.507052 cumulative IPC: 0.701869 (Simulation time: 0 hr 52 min 19 sec) 
Heartbeat CPU 0 instructions: 55000001 cycles: 71126757 heartbeat IPC: 0.458 cumulative IPC: 0.693661 (Simulation time: 0 hr 53 min 7 sec) 
Heartbeat CPU 0 instructions: 56000000 cycles: 73553146 heartbeat IPC: 0.412135 cumulative IPC: 0.683511 (Simulation time: 0 hr 54 min 0 sec) 
Heartbeat CPU 0 instructions: 57000001 cycles: 75972771 heartbeat IPC: 0.413288 cumulative IPC: 0.674133 (Simulation time: 0 hr 54 min 47 sec) 
Heartbeat CPU 0 instructions: 58000001 cycles: 78460876 heartbeat IPC: 0.401912 cumulative IPC: 0.664752 (Simulation time: 0 hr 55 min 32 sec) 
Heartbeat CPU 0 instructions: 59000003 cycles: 80791943 heartbeat IPC: 0.428989 cumulative IPC: 0.657379 (Simulation time: 0 hr 56 min 18 sec) 
Heartbeat CPU 0 instructions: 60000000 cycles: 83107673 heartbeat IPC: 0.431828 cumulative IPC: 0.650583 (Simulation time: 0 hr 57 min 12 sec) 
Heartbeat CPU 0 instructions: 61000003 cycles: 85440079 heartbeat IPC: 0.428743 cumulative IPC: 0.644049 (Simulation time: 0 hr 58 min 2 sec) 
Heartbeat CPU 0 instructions: 62000001 cycles: 87804618 heartbeat IPC: 0.422915 cumulative IPC: 0.637637 (Simulation time: 0 hr 58 min 53 sec) 
Heartbeat CPU 0 instructions: 63000000 cycles: 89808031 heartbeat IPC: 0.499148 cumulative IPC: 0.634317 (Simulation time: 0 hr 59 min 46 sec) 
Heartbeat CPU 0 instructions: 64000000 cycles: 91129937 heartbeat IPC: 0.756483 cumulative IPC: 0.636219 (Simulation time: 1 hr 0 min 31 sec) 
Heartbeat CPU 0 instructions: 65000000 cycles: 92490026 heartbeat IPC: 0.735246 cumulative IPC: 0.637781 (Simulation time: 1 hr 1 min 13 sec) 
Heartbeat CPU 0 instructions: 66000002 cycles: 93842099 heartbeat IPC: 0.739606 cumulative IPC: 0.639353 (Simulation time: 1 hr 1 min 56 sec) 
Heartbeat CPU 0 instructions: 67000000 cycles: 95189994 heartbeat IPC: 0.741896 cumulative IPC: 0.640907 (Simulation time: 1 hr 2 min 34 sec) 
Heartbeat CPU 0 instructions: 68000000 cycles: 96584683 heartbeat IPC: 0.717006 cumulative IPC: 0.642082 (Simulation time: 1 hr 3 min 9 sec) 
Heartbeat CPU 0 instructions: 69000000 cycles: 97919880 heartbeat IPC: 0.748953 cumulative IPC: 0.643639 (Simulation time: 1 hr 3 min 44 sec) 
Heartbeat CPU 0 instructions: 70000000 cycles: 99289886 heartbeat IPC: 0.729924 cumulative IPC: 0.644909 (Simulation time: 1 hr 4 min 14 sec) 
Heartbeat CPU 0 instructions: 71000000 cycles: 100613834 heartbeat IPC: 0.755317 cumulative IPC: 0.646458 (Simulation time: 1 hr 4 min 46 sec) 
Heartbeat CPU 0 instructions: 72000000 cycles: 101964193 heartbeat IPC: 0.740544 cumulative IPC: 0.647786 (Simulation time: 1 hr 5 min 17 sec) 
Heartbeat CPU 0 instructions: 73000000 cycles: 103313349 heartbeat IPC: 0.741204 cumulative IPC: 0.649084 (Simulation time: 1 hr 5 min 46 sec) 
Heartbeat CPU 0 instructions: 74000000 cycles: 104632339 heartbeat IPC: 0.758156 cumulative IPC: 0.650547 (Simulation time: 1 hr 6 min 15 sec) 
Heartbeat CPU 0 instructions: 75000003 cycles: 106000937 heartbeat IPC: 0.730677 cumulative IPC: 0.651646 (Simulation time: 1 hr 6 min 45 sec) 
Heartbeat CPU 0 instructions: 76000000 cycles: 107326725 heartbeat IPC: 0.754266 cumulative IPC: 0.652992 (Simulation time: 1 hr 7 min 18 sec) 
Heartbeat CPU 0 instructions: 77000000 cycles: 108688855 heartbeat IPC: 0.734144 cumulative IPC: 0.654071 (Simulation time: 1 hr 7 min 47 sec) 
Heartbeat CPU 0 instructions: 78000001 cycles: 110030372 heartbeat IPC: 0.745426 cumulative IPC: 0.655252 (Simulation time: 1 hr 8 min 14 sec) 
Heartbeat CPU 0 instructions: 79000002 cycles: 111382939 heartbeat IPC: 0.739336 cumulative IPC: 0.656334 (Simulation time: 1 hr 8 min 41 sec) 
Heartbeat CPU 0 instructions: 80000000 cycles: 112750611 heartbeat IPC: 0.731168 cumulative IPC: 0.657295 (Simulation time: 1 hr 9 min 6 sec) 
Heartbeat CPU 0 instructions: 81000000 cycles: 114079860 heartbeat IPC: 0.752304 cumulative IPC: 0.658466 (Simulation time: 1 hr 9 min 35 sec) 
Heartbeat CPU 0 instructions: 82000003 cycles: 115453991 heartbeat IPC: 0.727735 cumulative IPC: 0.659338 (Simulation time: 1 hr 10 min 0 sec) 
Heartbeat CPU 0 instructions: 83000001 cycles: 116794022 heartbeat IPC: 0.74625 cumulative IPC: 0.660392 (Simulation time: 1 hr 10 min 31 sec) 
Heartbeat CPU 0 instructions: 84000000 cycles: 118137040 heartbeat IPC: 0.744591 cumulative IPC: 0.661402 (Simulation time: 1 hr 10 min 54 sec) 
Heartbeat CPU 0 instructions: 85000001 cycles: 119463140 heartbeat IPC: 0.754092 cumulative IPC: 0.662488 (Simulation time: 1 hr 11 min 13 sec) 
Heartbeat CPU 0 instructions: 86000003 cycles: 120793642 heartbeat IPC: 0.751598 cumulative IPC: 0.663523 (Simulation time: 1 hr 11 min 33 sec) 
Heartbeat CPU 0 instructions: 87000001 cycles: 122135787 heartbeat IPC: 0.745075 cumulative IPC: 0.664468 (Simulation time: 1 hr 11 min 51 sec) 
Heartbeat CPU 0 instructions: 88000000 cycles: 123479179 heartbeat IPC: 0.744384 cumulative IPC: 0.665384 (Simulation time: 1 hr 12 min 8 sec) 
Heartbeat CPU 0 instructions: 89000001 cycles: 124831682 heartbeat IPC: 0.739371 cumulative IPC: 0.666227 (Simulation time: 1 hr 12 min 27 sec) 
Heartbeat CPU 0 instructions: 90000002 cycles: 126173429 heartbeat IPC: 0.745298 cumulative IPC: 0.667112 (Simulation time: 1 hr 12 min 44 sec) 
Heartbeat CPU 0 instructions: 91000000 cycles: 127523984 heartbeat IPC: 0.740435 cumulative IPC: 0.667929 (Simulation time: 1 hr 13 min 0 sec) 
Heartbeat CPU 0 instructions: 92000000 cycles: 128854049 heartbeat IPC: 0.751843 cumulative IPC: 0.668839 (Simulation time: 1 hr 13 min 17 sec) 
Heartbeat CPU 0 instructions: 93000002 cycles: 130212742 heartbeat IPC: 0.736003 cumulative IPC: 0.669575 (Simulation time: 1 hr 13 min 32 sec) 
Heartbeat CPU 0 instructions: 94000000 cycles: 131526399 heartbeat IPC: 0.761232 cumulative IPC: 0.670536 (Simulation time: 1 hr 13 min 47 sec) 
Heartbeat CPU 0 instructions: 95000003 cycles: 132845713 heartbeat IPC: 0.757972 cumulative IPC: 0.671448 (Simulation time: 1 hr 14 min 3 sec) 
Heartbeat CPU 0 instructions: 96000000 cycles: 134197500 heartbeat IPC: 0.739759 cumulative IPC: 0.672169 (Simulation time: 1 hr 14 min 17 sec) 
Heartbeat CPU 0 instructions: 97000001 cycles: 135516283 heartbeat IPC: 0.758276 cumulative IPC: 0.673048 (Simulation time: 1 hr 14 min 29 sec) 
Heartbeat CPU 0 instructions: 98000002 cycles: 136868616 heartbeat IPC: 0.739464 cumulative IPC: 0.673735 (Simulation time: 1 hr 14 min 41 sec) 
Heartbeat CPU 0 instructions: 99000000 cycles: 138195729 heartbeat IPC: 0.753514 cumulative IPC: 0.674538 (Simulation time: 1 hr 14 min 52 sec) 
Heartbeat CPU 0 instructions: 100000000 cycles: 139565501 heartbeat IPC: 0.730048 cumulative IPC: 0.675108 (Simulation time: 1 hr 15 min 1 sec) 
Heartbeat CPU 0 instructions: 101000000 cycles: 140906366 heartbeat IPC: 0.745787 cumulative IPC: 0.675812 (Simulation time: 1 hr 15 min 10 sec) 
Heartbeat CPU 0 instructions: 102000001 cycles: 142236002 heartbeat IPC: 0.752086 cumulative IPC: 0.676558 (Simulation time: 1 hr 15 min 18 sec) 
Heartbeat CPU 0 instructions: 103000002 cycles: 143597862 heartbeat IPC: 0.734291 cumulative IPC: 0.67713 (Simulation time: 1 hr 15 min 26 sec) 
Heartbeat CPU 0 instructions: 104000000 cycles: 144915862 heartbeat IPC: 0.758724 cumulative IPC: 0.677906 (Simulation time: 1 hr 15 min 34 sec) 
Heartbeat CPU 0 instructions: 105000001 cycles: 146285519 heartbeat IPC: 0.730111 cumulative IPC: 0.678416 (Simulation time: 1 hr 15 min 42 sec) 
Heartbeat CPU 0 instructions: 106000002 cycles: 147617726 heartbeat IPC: 0.750635 cumulative IPC: 0.679097 (Simulation time: 1 hr 15 min 50 sec) 
Heartbeat CPU 0 instructions: 107000000 cycles: 148964123 heartbeat IPC: 0.742721 cumulative IPC: 0.679697 (Simulation time: 1 hr 15 min 58 sec) 
Heartbeat CPU 0 instructions: 108000000 cycles: 150296828 heartbeat IPC: 0.750354 cumulative IPC: 0.680351 (Simulation time: 1 hr 16 min 5 sec) 
Heartbeat CPU 0 instructions: 109000003 cycles: 151623495 heartbeat IPC: 0.753771 cumulative IPC: 0.681021 (Simulation time: 1 hr 16 min 12 sec) 
Heartbeat CPU 0 instructions: 110000001 cycles: 152988009 heartbeat IPC: 0.73286 cumulative IPC: 0.681503 (Simulation time: 1 hr 16 min 20 sec) 
Finished CPU 0 instructions: 100000000 cycles: 146734459 cummulative IPC: 0.681503 (Simulation time: 1 hr 16 min 20 sec) 

ChampSim completed all CPUs

Region of Interest Statistics

CPU 0 cummulative IPC: 0.681503 instructions: 100000000 cycles: 146734459
LLC TOTAL     ACCESS:    3758535  HIT:    1003136  MISS:    2755399
LLC LOAD      ACCESS:     403141  HIT:      79721  MISS:     323420
LLC RFO       ACCESS:     463727  HIT:     173981  MISS:     289746
LLC PREFETCH  ACCESS:    2142517  HIT:     228723  MISS:    1913794
LLC WRITEBACK ACCESS:     749150  HIT:     520711  MISS:     228439
