Initialize SIGNATURE TABLE
ST_SET: 1
ST_WAY: 256
ST_TAG_BIT: 16
ST_TAG_MASK: ffff

Initialize PATTERN TABLE
PT_SET: 512
PT_WAY: 4
SIG_DELTA_BIT: 7
C_SIG_BIT: 4
C_DELTA_BIT: 4

Initialize PREFETCH FILTER
FILTER_SET: 1024

*** ChampSim Multicore Out-of-Order Simulator ***

Warmup Instructions: 50000000
Simulation Instructions: 50000000
Number of CPUs: 1
LLC sets: 2048
LLC ways: 16
Off-chip DRAM Size: 4096 MB Channels: 1 Width: 64-bit Data Rate: 3200 MT/s

CPU 0 runs /Users/gandhardeshpande/Desktop/CSE240C/HW1/ChampSim/ipc1_public/server_012.champsimtrace.xz
CPU 0 L1I next line prefetcher
Running FNL-MMA for L1I
CPU 0 L1D next line prefetcher
Heartbeat CPU 0 instructions: 10000002 cycles: 3192379 heartbeat IPC: 3.13246 cumulative IPC: 3.13246 (Simulation time: 0 hr 0 min 13 sec) 
Heartbeat CPU 0 instructions: 20000002 cycles: 6387306 heartbeat IPC: 3.12996 cumulative IPC: 3.13121 (Simulation time: 0 hr 0 min 27 sec) 
Heartbeat CPU 0 instructions: 30000001 cycles: 9583700 heartbeat IPC: 3.12853 cumulative IPC: 3.13032 (Simulation time: 0 hr 0 min 40 sec) 
Heartbeat CPU 0 instructions: 40000000 cycles: 12785592 heartbeat IPC: 3.12315 cumulative IPC: 3.12852 (Simulation time: 0 hr 0 min 54 sec) 
Heartbeat CPU 0 instructions: 50000003 cycles: 15980052 heartbeat IPC: 3.13042 cumulative IPC: 3.1289 (Simulation time: 0 hr 1 min 7 sec) 

Warmup complete CPU 0 instructions: 50000003 cycles: 15980052 (Simulation time: 0 hr 1 min 7 sec) 

Heartbeat CPU 0 instructions: 60000002 cycles: 23116094 heartbeat IPC: 1.40134 cumulative IPC: 1.40134 (Simulation time: 0 hr 1 min 19 sec) 
Heartbeat CPU 0 instructions: 70000000 cycles: 30278028 heartbeat IPC: 1.39627 cumulative IPC: 1.3988 (Simulation time: 0 hr 1 min 31 sec) 
Heartbeat CPU 0 instructions: 80000003 cycles: 37428704 heartbeat IPC: 1.39847 cumulative IPC: 1.39869 (Simulation time: 0 hr 1 min 43 sec) 
Heartbeat CPU 0 instructions: 90000001 cycles: 44820861 heartbeat IPC: 1.35278 cumulative IPC: 1.38692 (Simulation time: 0 hr 1 min 55 sec) 
Heartbeat CPU 0 instructions: 100000002 cycles: 52094216 heartbeat IPC: 1.37488 cumulative IPC: 1.3845 (Simulation time: 0 hr 2 min 7 sec) 
Finished CPU 0 instructions: 50000001 cycles: 36114165 cumulative IPC: 1.3845 (Simulation time: 0 hr 2 min 7 sec) 

ChampSim completed all CPUs

Region of Interest Statistics

CPU 0 cumulative IPC: 1.3845 instructions: 50000001 cycles: 36114165
L1D TOTAL     ACCESS:   17365467  HIT:   16322597  MISS:    1042870
L1D LOAD      ACCESS:    6322520  HIT:    5834444  MISS:     488076
L1D RFO       ACCESS:    4963705  HIT:    4881904  MISS:      81801
L1D PREFETCH  ACCESS:    6079242  HIT:    5606249  MISS:     472993
L1D WRITEBACK ACCESS:          0  HIT:          0  MISS:          0
L1D PREFETCH  REQUESTED:    6356783  ISSUED:    6256395  USEFUL:     132437  USELESS:     340577
L1D AVERAGE MISS LATENCY: 39.9653 cycles
L1I TOTAL     ACCESS:   11401622  HIT:    9515322  MISS:    1886300
L1I LOAD      ACCESS:    8692846  HIT:    8513291  MISS:     179555
L1I RFO       ACCESS:          0  HIT:          0  MISS:          0
L1I PREFETCH  ACCESS:    2708776  HIT:    1002031  MISS:    1706745
L1I WRITEBACK ACCESS:          0  HIT:          0  MISS:          0
L1I PREFETCH  REQUESTED:    2888101  ISSUED:    2887234  USEFUL:    1236436  USELESS:     470318
L1I AVERAGE MISS LATENCY: 28.1925 cycles
L2C TOTAL     ACCESS:    3702640  HIT:    2416607  MISS:    1286033
L2C LOAD      ACCESS:     506360  HIT:     252360  MISS:     254000
L2C RFO       ACCESS:      80676  HIT:      31944  MISS:      48732
L2C PREFETCH  ACCESS:    2840115  HIT:    1857814  MISS:     982301
L2C WRITEBACK ACCESS:     275489  HIT:     274489  MISS:       1000
L2C PREFETCH  REQUESTED:    2874368  ISSUED:    2872878  USEFUL:      28801  USELESS:     953634
L2C AVERAGE MISS LATENCY: 44.7712 cycles
LLC TOTAL     ACCESS:    2276442  HIT:    2151328  MISS:     125114
LLC LOAD      ACCESS:     253894  HIT:     236531  MISS:      17363
LLC RFO       ACCESS:      48724  HIT:      39137  MISS:       9587
LLC PREFETCH  ACCESS:    1807850  HIT:    1710010  MISS:      97840
LLC WRITEBACK ACCESS:     165974  HIT:     165650  MISS:        324
LLC PREFETCH  REQUESTED:          0  ISSUED:          0  USEFUL:       9107  USELESS:      88907
LLC AVERAGE MISS LATENCY: 172.196 cycles
Major fault: 0 Minor fault: 5598
I-Shadow cache 408 bytes
Touched + WorthPF tables 24576 bytes 
MMA filter 174 bytes 
FNL filter 272 bytes 
TOTAL PREFETCHER STORAGE SIZE: 98134 bytes
CPU 0 L1I next line prefetcher final stats
CPU 0 L1D next line prefetcher final stats

DRAM Statistics
 CHANNEL 0
 RQ ROW_BUFFER_HIT:      18917  ROW_BUFFER_MISS:     105863
 DBUS_CONGESTED:      55118
 WQ ROW_BUFFER_HIT:      10724  ROW_BUFFER_MISS:      47626  FULL:          0

 AVG_CONGESTED_CYCLE: 5

CPU 0 Branch Prediction Accuracy: 99.4607% MPKI: 1.00288 Average ROB Occupancy at Mispredict: 120.914

Branch types
NOT_BRANCH: 40701160 81.4023%
BRANCH_DIRECT_JUMP: 469810 0.93962%
BRANCH_INDIRECT: 153732 0.307464%
BRANCH_CONDITIONAL: 6944090 13.8882%
BRANCH_DIRECT_CALL: 679880 1.35976%
BRANCH_INDIRECT_CALL: 168745 0.33749%
BRANCH_RETURN: 882493 1.76499%
BRANCH_OTHER: 0 0%

