Initialize SIGNATURE TABLE
ST_SET: 1
ST_WAY: 256
ST_TAG_BIT: 16
ST_TAG_MASK: ffff

Initialize PATTERN TABLE
PT_SET: 512
PT_WAY: 4
SIG_DELTA_BIT: 7
C_SIG_BIT: 4
C_DELTA_BIT: 4

Initialize PREFETCH FILTER
FILTER_SET: 1024

*** ChampSim Multicore Out-of-Order Simulator ***

Warmup Instructions: 50000000
Simulation Instructions: 50000000
Number of CPUs: 1
LLC sets: 2048
LLC ways: 16
Off-chip DRAM Size: 4096 MB Channels: 1 Width: 64-bit Data Rate: 3200 MT/s

CPU 0 runs /Users/gandhardeshpande/Desktop/CSE240C/HW1/ChampSim/ipc1_public/server_013.champsimtrace.xz
CPU 0 L1I next line prefetcher
Running FNL-MMA for L1I
CPU 0 L1D next line prefetcher
Heartbeat CPU 0 instructions: 10000000 cycles: 3211436 heartbeat IPC: 3.11387 cumulative IPC: 3.11387 (Simulation time: 0 hr 0 min 14 sec) 
Heartbeat CPU 0 instructions: 20000001 cycles: 6411432 heartbeat IPC: 3.125 cumulative IPC: 3.11943 (Simulation time: 0 hr 0 min 27 sec) 
Heartbeat CPU 0 instructions: 30000002 cycles: 9615296 heartbeat IPC: 3.12123 cumulative IPC: 3.12003 (Simulation time: 0 hr 0 min 41 sec) 
Heartbeat CPU 0 instructions: 40000002 cycles: 12814874 heartbeat IPC: 3.12541 cumulative IPC: 3.12137 (Simulation time: 0 hr 0 min 54 sec) 
Heartbeat CPU 0 instructions: 50000000 cycles: 16013564 heartbeat IPC: 3.12628 cumulative IPC: 3.12235 (Simulation time: 0 hr 1 min 8 sec) 

Warmup complete CPU 0 instructions: 50000004 cycles: 16013565 (Simulation time: 0 hr 1 min 8 sec) 

Heartbeat CPU 0 instructions: 60000002 cycles: 23615590 heartbeat IPC: 1.31544 cumulative IPC: 1.31544 (Simulation time: 0 hr 1 min 20 sec) 
Heartbeat CPU 0 instructions: 70000002 cycles: 31391770 heartbeat IPC: 1.28598 cumulative IPC: 1.30054 (Simulation time: 0 hr 1 min 32 sec) 
Heartbeat CPU 0 instructions: 80000003 cycles: 38640554 heartbeat IPC: 1.37954 cumulative IPC: 1.32585 (Simulation time: 0 hr 1 min 44 sec) 
Heartbeat CPU 0 instructions: 90000003 cycles: 46062442 heartbeat IPC: 1.34737 cumulative IPC: 1.33116 (Simulation time: 0 hr 1 min 57 sec) 
Heartbeat CPU 0 instructions: 100000003 cycles: 53491555 heartbeat IPC: 1.34606 cumulative IPC: 1.33412 (Simulation time: 0 hr 2 min 9 sec) 
Finished CPU 0 instructions: 50000003 cycles: 37477991 cumulative IPC: 1.33412 (Simulation time: 0 hr 2 min 9 sec) 

ChampSim completed all CPUs

Region of Interest Statistics

CPU 0 cumulative IPC: 1.33412 instructions: 50000003 cycles: 37477991
L1D TOTAL     ACCESS:   17369639  HIT:   16303231  MISS:    1066408
L1D LOAD      ACCESS:    6340265  HIT:    5838473  MISS:     501792
L1D RFO       ACCESS:    4931168  HIT:    4850974  MISS:      80194
L1D PREFETCH  ACCESS:    6098206  HIT:    5613784  MISS:     484422
L1D WRITEBACK ACCESS:          0  HIT:          0  MISS:          0
L1D PREFETCH  REQUESTED:    6374979  ISSUED:    6279382  USEFUL:     132869  USELESS:     351562
L1D AVERAGE MISS LATENCY: 42.2794 cycles
L1I TOTAL     ACCESS:   11481766  HIT:    9515773  MISS:    1965993
L1I LOAD      ACCESS:    8655987  HIT:    8456366  MISS:     199621
L1I RFO       ACCESS:          0  HIT:          0  MISS:          0
L1I PREFETCH  ACCESS:    2825779  HIT:    1059407  MISS:    1766372
L1I WRITEBACK ACCESS:          0  HIT:          0  MISS:          0
L1I PREFETCH  REQUESTED:    3023843  ISSUED:    3022803  USEFUL:    1261820  USELESS:     504564
L1I AVERAGE MISS LATENCY: 29.4139 cycles
L2C TOTAL     ACCESS:    3798459  HIT:    2400900  MISS:    1397559
L2C LOAD      ACCESS:     523685  HIT:     247659  MISS:     276026
L2C RFO       ACCESS:      78864  HIT:      30336  MISS:      48528
L2C PREFETCH  ACCESS:    2920124  HIT:    1848919  MISS:    1071205
L2C WRITEBACK ACCESS:     275786  HIT:     273986  MISS:       1800
L2C PREFETCH  REQUESTED:    2942985  ISSUED:    2941825  USEFUL:      29283  USELESS:    1042033
L2C AVERAGE MISS LATENCY: 46.3503 cycles
LLC TOTAL     ACCESS:    2426528  HIT:    2275487  MISS:     151041
LLC LOAD      ACCESS:     275901  HIT:     253289  MISS:      22612
LLC RFO       ACCESS:      48517  HIT:      39179  MISS:       9338
LLC PREFETCH  ACCESS:    1926805  HIT:    1807972  MISS:     118833
LLC WRITEBACK ACCESS:     175305  HIT:     175047  MISS:        258
LLC PREFETCH  REQUESTED:          0  ISSUED:          0  USEFUL:      10127  USELESS:     107982
LLC AVERAGE MISS LATENCY: 173.976 cycles
Major fault: 0 Minor fault: 6202
I-Shadow cache 408 bytes
Touched + WorthPF tables 24576 bytes 
MMA filter 174 bytes 
FNL filter 272 bytes 
TOTAL PREFETCHER STORAGE SIZE: 98134 bytes
CPU 0 L1I next line prefetcher final stats
CPU 0 L1D next line prefetcher final stats

DRAM Statistics
 CHANNEL 0
 RQ ROW_BUFFER_HIT:      23688  ROW_BUFFER_MISS:     127080
 DBUS_CONGESTED:      65073
 WQ ROW_BUFFER_HIT:      11568  ROW_BUFFER_MISS:      49474  FULL:          0

 AVG_CONGESTED_CYCLE: 5

CPU 0 Branch Prediction Accuracy: 99.4114% MPKI: 1.0933 Average ROB Occupancy at Mispredict: 120.466

Branch types
NOT_BRANCH: 40713196 81.4264%
BRANCH_DIRECT_JUMP: 463700 0.9274%
BRANCH_INDIRECT: 146543 0.293086%
BRANCH_CONDITIONAL: 6981945 13.9639%
BRANCH_DIRECT_CALL: 665005 1.33001%
BRANCH_INDIRECT_CALL: 165151 0.330302%
BRANCH_RETURN: 864311 1.72862%
BRANCH_OTHER: 0 0%

