Initialize SIGNATURE TABLE
ST_SET: 1
ST_WAY: 256
ST_TAG_BIT: 16
ST_TAG_MASK: ffff

Initialize PATTERN TABLE
PT_SET: 512
PT_WAY: 4
SIG_DELTA_BIT: 7
C_SIG_BIT: 4
C_DELTA_BIT: 4

Initialize PREFETCH FILTER
FILTER_SET: 1024

*** ChampSim Multicore Out-of-Order Simulator ***

Warmup Instructions: 50000000
Simulation Instructions: 50000000
Number of CPUs: 1
LLC sets: 2048
LLC ways: 16
Off-chip DRAM Size: 4096 MB Channels: 1 Width: 64-bit Data Rate: 3200 MT/s

CPU 0 runs /Users/gandhardeshpande/Desktop/CSE240C/HW1/ChampSim/ipc1_public/server_024.champsimtrace.xz
L1I Barca has been initializedCPU 0 L1D next line prefetcher
Heartbeat CPU 0 instructions: 10000000 cycles: 3501295 heartbeat IPC: 2.85609 cumulative IPC: 2.85609 (Simulation time: 0 hr 0 min 21 sec) 
Heartbeat CPU 0 instructions: 20000002 cycles: 6996012 heartbeat IPC: 2.86146 cumulative IPC: 2.85877 (Simulation time: 0 hr 0 min 41 sec) 
Heartbeat CPU 0 instructions: 30000000 cycles: 10501313 heartbeat IPC: 2.85282 cumulative IPC: 2.85679 (Simulation time: 0 hr 1 min 1 sec) 
Heartbeat CPU 0 instructions: 40000000 cycles: 14004218 heartbeat IPC: 2.85477 cumulative IPC: 2.85628 (Simulation time: 0 hr 1 min 22 sec) 
Heartbeat CPU 0 instructions: 50000001 cycles: 17496331 heartbeat IPC: 2.8636 cumulative IPC: 2.85774 (Simulation time: 0 hr 1 min 42 sec) 

Warmup complete CPU 0 instructions: 50000001 cycles: 17496331 (Simulation time: 0 hr 1 min 42 sec) 

Heartbeat CPU 0 instructions: 60000003 cycles: 24336035 heartbeat IPC: 1.46205 cumulative IPC: 1.46205 (Simulation time: 0 hr 2 min 3 sec) 
Heartbeat CPU 0 instructions: 70000000 cycles: 31200458 heartbeat IPC: 1.45679 cumulative IPC: 1.45941 (Simulation time: 0 hr 2 min 24 sec) 
*** Reached end of trace for Core: 0 Repeating trace: /Users/gandhardeshpande/Desktop/CSE240C/HW1/ChampSim/ipc1_public/server_024.champsimtrace.xz
Heartbeat CPU 0 instructions: 80000003 cycles: 38041768 heartbeat IPC: 1.46171 cumulative IPC: 1.46018 (Simulation time: 0 hr 2 min 45 sec) 
Heartbeat CPU 0 instructions: 90000003 cycles: 44931683 heartbeat IPC: 1.4514 cumulative IPC: 1.45797 (Simulation time: 0 hr 3 min 5 sec) 
Heartbeat CPU 0 instructions: 100000002 cycles: 51785006 heartbeat IPC: 1.45915 cumulative IPC: 1.45821 (Simulation time: 0 hr 3 min 26 sec) 
Finished CPU 0 instructions: 50000001 cycles: 34288675 cumulative IPC: 1.45821 (Simulation time: 0 hr 3 min 26 sec) 

ChampSim completed all CPUs

Region of Interest Statistics

CPU 0 cumulative IPC: 1.45821 instructions: 50000001 cycles: 34288675
L1D TOTAL     ACCESS:   19745158  HIT:   18227582  MISS:    1517576
L1D LOAD      ACCESS:    6960753  HIT:    6280072  MISS:     680681
L1D RFO       ACCESS:    6151022  HIT:    5877032  MISS:     273990
L1D PREFETCH  ACCESS:    6633383  HIT:    6070478  MISS:     562905
L1D WRITEBACK ACCESS:          0  HIT:          0  MISS:          0
L1D PREFETCH  REQUESTED:    7015108  ISSUED:    6895665  USEFUL:     135526  USELESS:     427384
L1D AVERAGE MISS LATENCY: 25.4324 cycles
L1I TOTAL     ACCESS:   13155626  HIT:    9722939  MISS:    3432687
L1I LOAD      ACCESS:    9267380  HIT:    8989630  MISS:     277750
L1I RFO       ACCESS:          0  HIT:          0  MISS:          0
L1I PREFETCH  ACCESS:    3888246  HIT:     733309  MISS:    3154937
L1I WRITEBACK ACCESS:          0  HIT:          0  MISS:          0
L1I PREFETCH  REQUESTED:    4454206  ISSUED:    4454206  USEFUL:    2320572  USELESS:     834343
L1I AVERAGE MISS LATENCY: 16.7222 cycles
L2C TOTAL     ACCESS:    6687841  HIT:    5980923  MISS:     706918
L2C LOAD      ACCESS:     707959  HIT:     573871  MISS:     134088
L2C RFO       ACCESS:     272193  HIT:     183696  MISS:      88497
L2C PREFETCH  ACCESS:    5187521  HIT:    4709665  MISS:     477856
L2C WRITEBACK ACCESS:     520168  HIT:     513691  MISS:       6477
L2C PREFETCH  REQUESTED:    3631468  ISSUED:    3628492  USEFUL:      14416  USELESS:     463038
L2C AVERAGE MISS LATENCY: 42.5074 cycles
LLC TOTAL     ACCESS:    1872832  HIT:    1821600  MISS:      51232
LLC LOAD      ACCESS:     133902  HIT:     128353  MISS:       5549
LLC RFO       ACCESS:      88489  HIT:      66217  MISS:      22272
LLC PREFETCH  ACCESS:    1503907  HIT:    1480774  MISS:      23133
LLC WRITEBACK ACCESS:     146534  HIT:     146256  MISS:        278
LLC PREFETCH  REQUESTED:          0  ISSUED:          0  USEFUL:       1745  USELESS:      21078
LLC AVERAGE MISS LATENCY: 198.847 cycles
Major fault: 0 Minor fault: 2362
CPU 0 L1D next line prefetcher final stats

DRAM Statistics
 CHANNEL 0
 RQ ROW_BUFFER_HIT:      17383  ROW_BUFFER_MISS:      33545
 DBUS_CONGESTED:      36625
 WQ ROW_BUFFER_HIT:       2673  ROW_BUFFER_MISS:      22901  FULL:          0

 AVG_CONGESTED_CYCLE: 6

CPU 0 Branch Prediction Accuracy: 99.7477% MPKI: 0.46156 Average ROB Occupancy at Mispredict: 166.597

Branch types
NOT_BRANCH: 40853695 81.7074%
BRANCH_DIRECT_JUMP: 566820 1.13364%
BRANCH_INDIRECT: 197171 0.394342%
BRANCH_CONDITIONAL: 6308427 12.6169%
BRANCH_DIRECT_CALL: 876400 1.7528%
BRANCH_INDIRECT_CALL: 160491 0.320982%
BRANCH_RETURN: 1036885 2.07377%
BRANCH_OTHER: 0 0%

