Initialize SIGNATURE TABLE
ST_SET: 1
ST_WAY: 256
ST_TAG_BIT: 16
ST_TAG_MASK: ffff

Initialize PATTERN TABLE
PT_SET: 512
PT_WAY: 4
SIG_DELTA_BIT: 7
C_SIG_BIT: 4
C_DELTA_BIT: 4

Initialize PREFETCH FILTER
FILTER_SET: 1024

*** ChampSim Multicore Out-of-Order Simulator ***

Warmup Instructions: 50000000
Simulation Instructions: 50000000
Number of CPUs: 1
LLC sets: 2048
LLC ways: 16
Off-chip DRAM Size: 4096 MB Channels: 1 Width: 64-bit Data Rate: 3200 MT/s

CPU 0 runs /Users/gandhardeshpande/Desktop/CSE240C/HW1/ChampSim/ipc1_public/spec_gcc_003.champsimtrace.xz
L1I Barca has been initializedCPU 0 L1D next line prefetcher
Heartbeat CPU 0 instructions: 10000001 cycles: 3507877 heartbeat IPC: 2.85073 cumulative IPC: 2.85073 (Simulation time: 0 hr 0 min 14 sec) 
Heartbeat CPU 0 instructions: 20000000 cycles: 6991420 heartbeat IPC: 2.87064 cumulative IPC: 2.86065 (Simulation time: 0 hr 0 min 26 sec) 
Heartbeat CPU 0 instructions: 30000002 cycles: 10450098 heartbeat IPC: 2.89128 cumulative IPC: 2.87079 (Simulation time: 0 hr 0 min 39 sec) 
Heartbeat CPU 0 instructions: 40000000 cycles: 13928006 heartbeat IPC: 2.87529 cumulative IPC: 2.87191 (Simulation time: 0 hr 0 min 51 sec) 
Heartbeat CPU 0 instructions: 50000001 cycles: 17238164 heartbeat IPC: 3.021 cumulative IPC: 2.90054 (Simulation time: 0 hr 1 min 4 sec) 

Warmup complete CPU 0 instructions: 50000001 cycles: 17238164 (Simulation time: 0 hr 1 min 4 sec) 

Heartbeat CPU 0 instructions: 60000000 cycles: 56085226 heartbeat IPC: 0.25742 cumulative IPC: 0.25742 (Simulation time: 0 hr 1 min 34 sec) 
Heartbeat CPU 0 instructions: 70000000 cycles: 97238581 heartbeat IPC: 0.242994 cumulative IPC: 0.249999 (Simulation time: 0 hr 2 min 5 sec) 
Heartbeat CPU 0 instructions: 80000003 cycles: 139467842 heartbeat IPC: 0.236803 cumulative IPC: 0.24544 (Simulation time: 0 hr 2 min 37 sec) 
Heartbeat CPU 0 instructions: 90000002 cycles: 175215330 heartbeat IPC: 0.27974 cumulative IPC: 0.253201 (Simulation time: 0 hr 3 min 6 sec) 
Heartbeat CPU 0 instructions: 100000001 cycles: 220231443 heartbeat IPC: 0.222143 cumulative IPC: 0.246314 (Simulation time: 0 hr 3 min 39 sec) 
Finished CPU 0 instructions: 50000000 cycles: 202993279 cumulative IPC: 0.246314 (Simulation time: 0 hr 3 min 39 sec) 

ChampSim completed all CPUs

Region of Interest Statistics

CPU 0 cumulative IPC: 0.246314 instructions: 50000000 cycles: 202993279
L1D TOTAL     ACCESS:   16888312  HIT:   11163940  MISS:    5724372
L1D LOAD      ACCESS:    4583381  HIT:    4200641  MISS:     382740
L1D RFO       ACCESS:    8211015  HIT:    3159438  MISS:    5051577
L1D PREFETCH  ACCESS:    4093916  HIT:    3803861  MISS:     290055
L1D WRITEBACK ACCESS:          0  HIT:          0  MISS:          0
L1D PREFETCH  REQUESTED:    4600910  ISSUED:    4540837  USEFUL:     152557  USELESS:     137678
L1D AVERAGE MISS LATENCY: 481.823 cycles
L1I TOTAL     ACCESS:   12868938  HIT:   11462117  MISS:    1406821
L1I LOAD      ACCESS:   11264302  HIT:   11116292  MISS:     148010
L1I RFO       ACCESS:          0  HIT:          0  MISS:          0
L1I PREFETCH  ACCESS:    1604636  HIT:     345825  MISS:    1258811
L1I WRITEBACK ACCESS:          0  HIT:          0  MISS:          0
L1I PREFETCH  REQUESTED:    1868483  ISSUED:    1868483  USEFUL:     731481  USELESS:     527273
L1I AVERAGE MISS LATENCY: 47.5311 cycles
L2C TOTAL     ACCESS:   12688740  HIT:    6624818  MISS:    6063922
L2C LOAD      ACCESS:     258694  HIT:      73477  MISS:     185217
L2C RFO       ACCESS:    5049838  HIT:       6452  MISS:    5043386
L2C PREFETCH  ACCESS:    2222344  HIT:    1387190  MISS:     835154
L2C WRITEBACK ACCESS:    5157864  HIT:    5157699  MISS:        165
L2C PREFETCH  REQUESTED:    1872947  ISSUED:    1872922  USEFUL:      24674  USELESS:     807673
L2C AVERAGE MISS LATENCY: 452.204 cycles
LLC TOTAL     ACCESS:   11905409  HIT:    7379496  MISS:    4525913
LLC LOAD      ACCESS:     185169  HIT:     137051  MISS:      48118
LLC RFO       ACCESS:    5043387  HIT:     822903  MISS:    4220484
LLC PREFETCH  ACCESS:    1543222  HIT:    1285911  MISS:     257311
LLC WRITEBACK ACCESS:    5133631  HIT:    5133631  MISS:          0
LLC PREFETCH  REQUESTED:          0  ISSUED:          0  USEFUL:      13305  USELESS:     243805
LLC AVERAGE MISS LATENCY: 573.521 cycles
Major fault: 0 Minor fault: 2817
CPU 0 L1D next line prefetcher final stats

DRAM Statistics
 CHANNEL 0
 RQ ROW_BUFFER_HIT:    1372402  ROW_BUFFER_MISS:    3151688
 DBUS_CONGESTED:    7785806
 WQ ROW_BUFFER_HIT:    1132126  ROW_BUFFER_MISS:    3117531  FULL:       1934

 AVG_CONGESTED_CYCLE: 6

CPU 0 Branch Prediction Accuracy: 99.665% MPKI: 0.78342 Average ROB Occupancy at Mispredict: 116.91

Branch types
NOT_BRANCH: 38305858 76.6117%
BRANCH_DIRECT_JUMP: 384281 0.768562%
BRANCH_INDIRECT: 71949 0.143898%
BRANCH_CONDITIONAL: 9879825 19.7597%
BRANCH_DIRECT_CALL: 650586 1.30117%
BRANCH_INDIRECT_CALL: 28456 0.056912%
BRANCH_RETURN: 679046 1.35809%
BRANCH_OTHER: 0 0%

