Initialize SIGNATURE TABLE
ST_SET: 1
ST_WAY: 256
ST_TAG_BIT: 16
ST_TAG_MASK: ffff

Initialize PATTERN TABLE
PT_SET: 512
PT_WAY: 4
SIG_DELTA_BIT: 7
C_SIG_BIT: 4
C_DELTA_BIT: 4

Initialize PREFETCH FILTER
FILTER_SET: 1024

*** ChampSim Multicore Out-of-Order Simulator ***

Warmup Instructions: 50000000
Simulation Instructions: 50000000
Number of CPUs: 1
LLC sets: 2048
LLC ways: 16
Off-chip DRAM Size: 4096 MB Channels: 1 Width: 64-bit Data Rate: 3200 MT/s

CPU 0 runs /Users/gandhardeshpande/Desktop/CSE240C/HW1/ChampSim/ipc1_public/server_033.champsimtrace.xz
CPU 0 L1I next line prefetcher
Running FNL-MMA for L1I
CPU 0 L1D next line prefetcher
Heartbeat CPU 0 instructions: 10000001 cycles: 3340177 heartbeat IPC: 2.99385 cumulative IPC: 2.99385 (Simulation time: 0 hr 0 min 14 sec) 
Heartbeat CPU 0 instructions: 20000002 cycles: 6678569 heartbeat IPC: 2.99545 cumulative IPC: 2.99465 (Simulation time: 0 hr 0 min 29 sec) 
Heartbeat CPU 0 instructions: 30000001 cycles: 10007012 heartbeat IPC: 3.00441 cumulative IPC: 2.9979 (Simulation time: 0 hr 0 min 43 sec) 
Heartbeat CPU 0 instructions: 40000000 cycles: 13344539 heartbeat IPC: 2.99623 cumulative IPC: 2.99748 (Simulation time: 0 hr 0 min 58 sec) 
Heartbeat CPU 0 instructions: 50000000 cycles: 16681024 heartbeat IPC: 2.99717 cumulative IPC: 2.99742 (Simulation time: 0 hr 1 min 13 sec) 

Warmup complete CPU 0 instructions: 50000004 cycles: 16681025 (Simulation time: 0 hr 1 min 13 sec) 

Heartbeat CPU 0 instructions: 60000000 cycles: 23257948 heartbeat IPC: 1.52047 cumulative IPC: 1.52047 (Simulation time: 0 hr 1 min 28 sec) 
Heartbeat CPU 0 instructions: 70000000 cycles: 29779086 heartbeat IPC: 1.53347 cumulative IPC: 1.52694 (Simulation time: 0 hr 1 min 43 sec) 
Heartbeat CPU 0 instructions: 80000000 cycles: 37091427 heartbeat IPC: 1.36755 cumulative IPC: 1.46984 (Simulation time: 0 hr 1 min 58 sec) 
Heartbeat CPU 0 instructions: 90000003 cycles: 43727889 heartbeat IPC: 1.50683 cumulative IPC: 1.47891 (Simulation time: 0 hr 2 min 14 sec) 
Heartbeat CPU 0 instructions: 100000003 cycles: 50317485 heartbeat IPC: 1.51754 cumulative IPC: 1.48648 (Simulation time: 0 hr 2 min 29 sec) 
Finished CPU 0 instructions: 50000003 cycles: 33636461 cumulative IPC: 1.48648 (Simulation time: 0 hr 2 min 29 sec) 

ChampSim completed all CPUs

Region of Interest Statistics

CPU 0 cumulative IPC: 1.48648 instructions: 50000003 cycles: 33636461
L1D TOTAL     ACCESS:   18235391  HIT:   16753091  MISS:    1482300
L1D LOAD      ACCESS:    6142044  HIT:    5458858  MISS:     683186
L1D RFO       ACCESS:    6165512  HIT:    6016051  MISS:     149461
L1D PREFETCH  ACCESS:    5927835  HIT:    5278182  MISS:     649653
L1D WRITEBACK ACCESS:          0  HIT:          0  MISS:          0
L1D PREFETCH  REQUESTED:    6184112  ISSUED:    6064167  USEFUL:     141410  USELESS:     508250
L1D AVERAGE MISS LATENCY: 23.8011 cycles
L1I TOTAL     ACCESS:   15393135  HIT:   11201618  MISS:    4191517
L1I LOAD      ACCESS:    9689105  HIT:    9654280  MISS:      34825
L1I RFO       ACCESS:          0  HIT:          0  MISS:          0
L1I PREFETCH  ACCESS:    5704030  HIT:    1547338  MISS:    4156692
L1I WRITEBACK ACCESS:          0  HIT:          0  MISS:          0
L1I PREFETCH  REQUESTED:    5898348  ISSUED:    5898204  USEFUL:    3363215  USELESS:     793428
L1I AVERAGE MISS LATENCY: 15.4186 cycles
L2C TOTAL     ACCESS:    7557164  HIT:    7245596  MISS:     311568
L2C LOAD      ACCESS:     688780  HIT:     564979  MISS:     123801
L2C RFO       ACCESS:     148102  HIT:     128439  MISS:      19663
L2C PREFETCH  ACCESS:    6353819  HIT:    6187250  MISS:     166569
L2C WRITEBACK ACCESS:     366463  HIT:     364928  MISS:       1535
L2C PREFETCH  REQUESTED:    7459614  ISSUED:    7444979  USEFUL:       9875  USELESS:     156392
L2C AVERAGE MISS LATENCY: 49.3066 cycles
LLC TOTAL     ACCESS:    2321307  HIT:    2258026  MISS:      63281
LLC LOAD      ACCESS:     123747  HIT:     109568  MISS:      14179
LLC RFO       ACCESS:      19662  HIT:      17143  MISS:       2519
LLC PREFETCH  ACCESS:    2073184  HIT:    2026968  MISS:      46216
LLC WRITEBACK ACCESS:     104714  HIT:     104347  MISS:        367
LLC PREFETCH  REQUESTED:          0  ISSUED:          0  USEFUL:       7446  USELESS:      37184
LLC AVERAGE MISS LATENCY: 172.618 cycles
Major fault: 0 Minor fault: 2482
I-Shadow cache 408 bytes
Touched + WorthPF tables 24576 bytes 
MMA filter 174 bytes 
FNL filter 272 bytes 
TOTAL PREFETCHER STORAGE SIZE: 98134 bytes
CPU 0 L1I next line prefetcher final stats
CPU 0 L1D next line prefetcher final stats

DRAM Statistics
 CHANNEL 0
 RQ ROW_BUFFER_HIT:       9406  ROW_BUFFER_MISS:      53507
 DBUS_CONGESTED:      26965
 WQ ROW_BUFFER_HIT:       4040  ROW_BUFFER_MISS:      17372  FULL:          0

 AVG_CONGESTED_CYCLE: 5

CPU 0 Branch Prediction Accuracy: 99.9029% MPKI: 0.19006 Average ROB Occupancy at Mispredict: 254.204

Branch types
NOT_BRANCH: 40217129 80.4343%
BRANCH_DIRECT_JUMP: 774600 1.5492%
BRANCH_INDIRECT: 108806 0.217612%
BRANCH_CONDITIONAL: 6379334 12.7587%
BRANCH_DIRECT_CALL: 1048809 2.09762%
BRANCH_INDIRECT_CALL: 211109 0.422218%
BRANCH_RETURN: 1259926 2.51985%
BRANCH_OTHER: 0 0%

