Initialize SIGNATURE TABLE
ST_SET: 1
ST_WAY: 256
ST_TAG_BIT: 16
ST_TAG_MASK: ffff

Initialize PATTERN TABLE
PT_SET: 512
PT_WAY: 4
SIG_DELTA_BIT: 7
C_SIG_BIT: 4
C_DELTA_BIT: 4

Initialize PREFETCH FILTER
FILTER_SET: 1024

*** ChampSim Multicore Out-of-Order Simulator ***

Warmup Instructions: 50000000
Simulation Instructions: 50000000
Number of CPUs: 1
LLC sets: 2048
LLC ways: 16
Off-chip DRAM Size: 4096 MB Channels: 1 Width: 64-bit Data Rate: 3200 MT/s

CPU 0 runs /Users/gandhardeshpande/Desktop/CSE240C/HW1/ChampSim/ipc1_public/server_032.champsimtrace.xz
CPU 0 L1I next line prefetcher
Running FNL-MMA for L1I
CPU 0 L1D next line prefetcher
Heartbeat CPU 0 instructions: 10000002 cycles: 3522483 heartbeat IPC: 2.83891 cumulative IPC: 2.83891 (Simulation time: 0 hr 0 min 15 sec) 
Heartbeat CPU 0 instructions: 20000003 cycles: 7046542 heartbeat IPC: 2.83764 cumulative IPC: 2.83827 (Simulation time: 0 hr 0 min 30 sec) 
Heartbeat CPU 0 instructions: 30000000 cycles: 10570009 heartbeat IPC: 2.83811 cumulative IPC: 2.83822 (Simulation time: 0 hr 0 min 45 sec) 
Heartbeat CPU 0 instructions: 40000003 cycles: 14094643 heartbeat IPC: 2.83717 cumulative IPC: 2.83796 (Simulation time: 0 hr 1 min 0 sec) 
Heartbeat CPU 0 instructions: 50000000 cycles: 17618026 heartbeat IPC: 2.83818 cumulative IPC: 2.838 (Simulation time: 0 hr 1 min 15 sec) 

Warmup complete CPU 0 instructions: 50000004 cycles: 17618027 (Simulation time: 0 hr 1 min 15 sec) 

Heartbeat CPU 0 instructions: 60000002 cycles: 24427508 heartbeat IPC: 1.46854 cumulative IPC: 1.46854 (Simulation time: 0 hr 1 min 31 sec) 
Heartbeat CPU 0 instructions: 70000000 cycles: 31230761 heartbeat IPC: 1.46988 cumulative IPC: 1.46921 (Simulation time: 0 hr 1 min 47 sec) 
*** Reached end of trace for Core: 0 Repeating trace: /Users/gandhardeshpande/Desktop/CSE240C/HW1/ChampSim/ipc1_public/server_032.champsimtrace.xz
Heartbeat CPU 0 instructions: 80000003 cycles: 38032363 heartbeat IPC: 1.47024 cumulative IPC: 1.46956 (Simulation time: 0 hr 2 min 3 sec) 
Heartbeat CPU 0 instructions: 90000002 cycles: 44806419 heartbeat IPC: 1.47622 cumulative IPC: 1.47122 (Simulation time: 0 hr 2 min 19 sec) 
Heartbeat CPU 0 instructions: 100000001 cycles: 51586714 heartbeat IPC: 1.47486 cumulative IPC: 1.47194 (Simulation time: 0 hr 2 min 35 sec) 
Finished CPU 0 instructions: 50000002 cycles: 33968689 cumulative IPC: 1.47194 (Simulation time: 0 hr 2 min 35 sec) 

ChampSim completed all CPUs

Region of Interest Statistics

CPU 0 cumulative IPC: 1.47194 instructions: 50000002 cycles: 33968689
L1D TOTAL     ACCESS:   19781716  HIT:   17953583  MISS:    1828133
L1D LOAD      ACCESS:    6760327  HIT:    5965768  MISS:     794559
L1D RFO       ACCESS:    6541313  HIT:    6246400  MISS:     294913
L1D PREFETCH  ACCESS:    6480076  HIT:    5741415  MISS:     738661
L1D WRITEBACK ACCESS:          0  HIT:          0  MISS:          0
L1D PREFETCH  REQUESTED:    6810079  ISSUED:    6671446  USEFUL:     168984  USELESS:     569675
L1D AVERAGE MISS LATENCY: 19.8187 cycles
L1I TOTAL     ACCESS:   15216180  HIT:   11255920  MISS:    3960260
L1I LOAD      ACCESS:    9721503  HIT:    9657012  MISS:      64491
L1I RFO       ACCESS:          0  HIT:          0  MISS:          0
L1I PREFETCH  ACCESS:    5494677  HIT:    1598908  MISS:    3895769
L1I WRITEBACK ACCESS:          0  HIT:          0  MISS:          0
L1I PREFETCH  REQUESTED:    5725470  ISSUED:    5725470  USEFUL:    3181728  USELESS:     714043
L1I AVERAGE MISS LATENCY: 18.1164 cycles
L2C TOTAL     ACCESS:    8008690  HIT:    7279735  MISS:     728955
L2C LOAD      ACCESS:     782986  HIT:     662194  MISS:     120792
L2C RFO       ACCESS:     292636  HIT:     240113  MISS:      52523
L2C PREFETCH  ACCESS:    6296849  HIT:    5746886  MISS:     549963
L2C WRITEBACK ACCESS:     636219  HIT:     630542  MISS:       5677
L2C PREFETCH  REQUESTED:    7938627  ISSUED:    7914193  USEFUL:       8568  USELESS:     541265
L2C AVERAGE MISS LATENCY: 33.7386 cycles
LLC TOTAL     ACCESS:    2607696  HIT:    2601842  MISS:       5854
LLC LOAD      ACCESS:     120787  HIT:     120354  MISS:        433
LLC RFO       ACCESS:      52348  HIT:      52348  MISS:          0
LLC PREFETCH  ACCESS:    2325600  HIT:    2320210  MISS:       5390
LLC WRITEBACK ACCESS:     108961  HIT:     108930  MISS:         31
LLC PREFETCH  REQUESTED:          0  ISSUED:          0  USEFUL:        388  USELESS:       1551
LLC AVERAGE MISS LATENCY: 147.162 cycles
Major fault: 0 Minor fault: 1179
I-Shadow cache 408 bytes
Touched + WorthPF tables 24576 bytes 
MMA filter 174 bytes 
FNL filter 272 bytes 
TOTAL PREFETCHER STORAGE SIZE: 98134 bytes
CPU 0 L1I next line prefetcher final stats
CPU 0 L1D next line prefetcher final stats

DRAM Statistics
 CHANNEL 0
 RQ ROW_BUFFER_HIT:       1531  ROW_BUFFER_MISS:       4292
 DBUS_CONGESTED:        869
 WQ ROW_BUFFER_HIT:          1  ROW_BUFFER_MISS:         11  FULL:          0

 AVG_CONGESTED_CYCLE: 5

CPU 0 Branch Prediction Accuracy: 99.8762% MPKI: 0.2296 Average ROB Occupancy at Mispredict: 189.735

Branch types
NOT_BRANCH: 40726187 81.4524%
BRANCH_DIRECT_JUMP: 508374 1.01675%
BRANCH_INDIRECT: 180051 0.360102%
BRANCH_CONDITIONAL: 5999665 11.9993%
BRANCH_DIRECT_CALL: 1086739 2.17348%
BRANCH_INDIRECT_CALL: 206109 0.412218%
BRANCH_RETURN: 1292837 2.58567%
BRANCH_OTHER: 0 0%

