Initialize SIGNATURE TABLE
ST_SET: 1
ST_WAY: 256
ST_TAG_BIT: 16
ST_TAG_MASK: ffff

Initialize PATTERN TABLE
PT_SET: 512
PT_WAY: 4
SIG_DELTA_BIT: 7
C_SIG_BIT: 4
C_DELTA_BIT: 4

Initialize PREFETCH FILTER
FILTER_SET: 1024

*** ChampSim Multicore Out-of-Order Simulator ***

Warmup Instructions: 50000000
Simulation Instructions: 50000000
Number of CPUs: 1
LLC sets: 2048
LLC ways: 16
Off-chip DRAM Size: 4096 MB Channels: 1 Width: 64-bit Data Rate: 3200 MT/s

CPU 0 runs /Users/gandhardeshpande/Desktop/CSE240C/HW1/ChampSim/ipc1_public/server_026.champsimtrace.xz
CPU 0 L1I next line prefetcher
Running FNL-MMA for L1I
CPU 0 L1D next line prefetcher
Heartbeat CPU 0 instructions: 10000000 cycles: 3526118 heartbeat IPC: 2.83598 cumulative IPC: 2.83598 (Simulation time: 0 hr 0 min 15 sec) 
Heartbeat CPU 0 instructions: 20000002 cycles: 7057991 heartbeat IPC: 2.83136 cumulative IPC: 2.83367 (Simulation time: 0 hr 0 min 30 sec) 
Heartbeat CPU 0 instructions: 30000000 cycles: 10580164 heartbeat IPC: 2.83916 cumulative IPC: 2.83549 (Simulation time: 0 hr 0 min 44 sec) 
Heartbeat CPU 0 instructions: 40000003 cycles: 14110741 heartbeat IPC: 2.8324 cumulative IPC: 2.83472 (Simulation time: 0 hr 0 min 59 sec) 
Heartbeat CPU 0 instructions: 50000000 cycles: 17633495 heartbeat IPC: 2.83869 cumulative IPC: 2.83551 (Simulation time: 0 hr 1 min 14 sec) 

Warmup complete CPU 0 instructions: 50000004 cycles: 17633496 (Simulation time: 0 hr 1 min 14 sec) 

*** Reached end of trace for Core: 0 Repeating trace: /Users/gandhardeshpande/Desktop/CSE240C/HW1/ChampSim/ipc1_public/server_026.champsimtrace.xz
Heartbeat CPU 0 instructions: 60000000 cycles: 24546783 heartbeat IPC: 1.44649 cumulative IPC: 1.44649 (Simulation time: 0 hr 1 min 29 sec) 
Heartbeat CPU 0 instructions: 70000003 cycles: 31346195 heartbeat IPC: 1.47072 cumulative IPC: 1.4585 (Simulation time: 0 hr 1 min 45 sec) 
Heartbeat CPU 0 instructions: 80000002 cycles: 38245118 heartbeat IPC: 1.4495 cumulative IPC: 1.45549 (Simulation time: 0 hr 2 min 0 sec) 
Heartbeat CPU 0 instructions: 90000002 cycles: 45051884 heartbeat IPC: 1.46913 cumulative IPC: 1.45887 (Simulation time: 0 hr 2 min 16 sec) 
Heartbeat CPU 0 instructions: 100000000 cycles: 51936143 heartbeat IPC: 1.45259 cumulative IPC: 1.45761 (Simulation time: 0 hr 2 min 31 sec) 
Finished CPU 0 instructions: 50000000 cycles: 34302648 cumulative IPC: 1.45761 (Simulation time: 0 hr 2 min 31 sec) 

ChampSim completed all CPUs

Region of Interest Statistics

CPU 0 cumulative IPC: 1.45761 instructions: 50000000 cycles: 34302648
L1D TOTAL     ACCESS:   19769013  HIT:   18124123  MISS:    1644890
L1D LOAD      ACCESS:    6931960  HIT:    6201194  MISS:     730766
L1D RFO       ACCESS:    6242319  HIT:    5955510  MISS:     286809
L1D PREFETCH  ACCESS:    6594734  HIT:    5967419  MISS:     627315
L1D WRITEBACK ACCESS:          0  HIT:          0  MISS:          0
L1D PREFETCH  REQUESTED:    6980687  ISSUED:    6837011  USEFUL:     149805  USELESS:     477521
L1D AVERAGE MISS LATENCY: 24.5028 cycles
L1I TOTAL     ACCESS:   14875867  HIT:   10933541  MISS:    3942326
L1I LOAD      ACCESS:    9510729  HIT:    9448062  MISS:      62667
L1I RFO       ACCESS:          0  HIT:          0  MISS:          0
L1I PREFETCH  ACCESS:    5365138  HIT:    1485479  MISS:    3879659
L1I WRITEBACK ACCESS:          0  HIT:          0  MISS:          0
L1I PREFETCH  REQUESTED:    5557251  ISSUED:    5557171  USEFUL:    2800448  USELESS:    1079223
L1I AVERAGE MISS LATENCY: 19.123 cycles
L2C TOTAL     ACCESS:    7438597  HIT:    6525481  MISS:     913116
L2C LOAD      ACCESS:     714182  HIT:     559185  MISS:     154997
L2C RFO       ACCESS:     284792  HIT:     178907  MISS:     105885
L2C PREFETCH  ACCESS:    5878451  HIT:    5230865  MISS:     647586
L2C WRITEBACK ACCESS:     561172  HIT:     556524  MISS:       4648
L2C PREFETCH  REQUESTED:    7424804  ISSUED:    7407791  USEFUL:      16455  USELESS:     630821
L2C AVERAGE MISS LATENCY: 38.8449 cycles
LLC TOTAL     ACCESS:    2864263  HIT:    2828872  MISS:      35391
LLC LOAD      ACCESS:     154685  HIT:     151184  MISS:       3501
LLC RFO       ACCESS:     105824  HIT:      91215  MISS:      14609
LLC PREFETCH  ACCESS:    2428081  HIT:    2411021  MISS:      17060
LLC WRITEBACK ACCESS:     175673  HIT:     175452  MISS:        221
LLC PREFETCH  REQUESTED:          0  ISSUED:          0  USEFUL:       1075  USELESS:      16108
LLC AVERAGE MISS LATENCY: 188.345 cycles
Major fault: 0 Minor fault: 2166
I-Shadow cache 408 bytes
Touched + WorthPF tables 24576 bytes 
MMA filter 174 bytes 
FNL filter 272 bytes 
TOTAL PREFETCHER STORAGE SIZE: 98134 bytes
CPU 0 L1I next line prefetcher final stats
CPU 0 L1D next line prefetcher final stats

DRAM Statistics
 CHANNEL 0
 RQ ROW_BUFFER_HIT:      12745  ROW_BUFFER_MISS:      22414
 DBUS_CONGESTED:      24493
 WQ ROW_BUFFER_HIT:       1530  ROW_BUFFER_MISS:      14380  FULL:          0

 AVG_CONGESTED_CYCLE: 6

CPU 0 Branch Prediction Accuracy: 99.822% MPKI: 0.32584 Average ROB Occupancy at Mispredict: 203.13

Branch types
NOT_BRANCH: 40848554 81.6971%
BRANCH_DIRECT_JUMP: 522045 1.04409%
BRANCH_INDIRECT: 204034 0.408068%
BRANCH_CONDITIONAL: 6212958 12.4259%
BRANCH_DIRECT_CALL: 932391 1.86478%
BRANCH_INDIRECT_CALL: 173764 0.347528%
BRANCH_RETURN: 1106152 2.2123%
BRANCH_OTHER: 0 0%

