Initialize SIGNATURE TABLE
ST_SET: 1
ST_WAY: 256
ST_TAG_BIT: 16
ST_TAG_MASK: ffff

Initialize PATTERN TABLE
PT_SET: 512
PT_WAY: 4
SIG_DELTA_BIT: 7
C_SIG_BIT: 4
C_DELTA_BIT: 4

Initialize PREFETCH FILTER
FILTER_SET: 1024

*** ChampSim Multicore Out-of-Order Simulator ***

Warmup Instructions: 50000000
Simulation Instructions: 50000000
Number of CPUs: 1
LLC sets: 2048
LLC ways: 16
Off-chip DRAM Size: 4096 MB Channels: 1 Width: 64-bit Data Rate: 3200 MT/s

CPU 0 runs /Users/gandhardeshpande/Desktop/CSE240C/HW1/ChampSim/ipc1_public/spec_gobmk_001.champsimtrace.xz
CPU 0 L1I next line prefetcher
Running FNL-MMA for L1I
CPU 0 L1D next line prefetcher
Heartbeat CPU 0 instructions: 10000003 cycles: 3506961 heartbeat IPC: 2.85147 cumulative IPC: 2.85147 (Simulation time: 0 hr 0 min 12 sec) 
Heartbeat CPU 0 instructions: 20000002 cycles: 6987233 heartbeat IPC: 2.87334 cumulative IPC: 2.86236 (Simulation time: 0 hr 0 min 24 sec) 
Heartbeat CPU 0 instructions: 30000002 cycles: 10506112 heartbeat IPC: 2.84181 cumulative IPC: 2.85548 (Simulation time: 0 hr 0 min 36 sec) 
Heartbeat CPU 0 instructions: 40000001 cycles: 14025185 heartbeat IPC: 2.84166 cumulative IPC: 2.85201 (Simulation time: 0 hr 0 min 48 sec) 
Heartbeat CPU 0 instructions: 50000001 cycles: 17565436 heartbeat IPC: 2.82466 cumulative IPC: 2.8465 (Simulation time: 0 hr 1 min 1 sec) 

Warmup complete CPU 0 instructions: 50000001 cycles: 17565436 (Simulation time: 0 hr 1 min 1 sec) 

Heartbeat CPU 0 instructions: 60000000 cycles: 26418325 heartbeat IPC: 1.12957 cumulative IPC: 1.12957 (Simulation time: 0 hr 1 min 10 sec) 
Heartbeat CPU 0 instructions: 70000002 cycles: 34927693 heartbeat IPC: 1.17518 cumulative IPC: 1.15192 (Simulation time: 0 hr 1 min 18 sec) 
Heartbeat CPU 0 instructions: 80000003 cycles: 43849423 heartbeat IPC: 1.12086 cumulative IPC: 1.14138 (Simulation time: 0 hr 1 min 27 sec) 
Heartbeat CPU 0 instructions: 90000001 cycles: 52417495 heartbeat IPC: 1.16712 cumulative IPC: 1.14771 (Simulation time: 0 hr 1 min 36 sec) 
Heartbeat CPU 0 instructions: 100000003 cycles: 61307758 heartbeat IPC: 1.12483 cumulative IPC: 1.14306 (Simulation time: 0 hr 1 min 45 sec) 
Finished CPU 0 instructions: 50000002 cycles: 43742322 cumulative IPC: 1.14306 (Simulation time: 0 hr 1 min 45 sec) 

ChampSim completed all CPUs

Region of Interest Statistics

CPU 0 cumulative IPC: 1.14306 instructions: 50000002 cycles: 43742322
L1D TOTAL     ACCESS:   18017406  HIT:   17637847  MISS:     379559
L1D LOAD      ACCESS:    7226964  HIT:    7092362  MISS:     134602
L1D RFO       ACCESS:    3702182  HIT:    3597661  MISS:     104521
L1D PREFETCH  ACCESS:    7088260  HIT:    6947824  MISS:     140436
L1D WRITEBACK ACCESS:          0  HIT:          0  MISS:          0
L1D PREFETCH  REQUESTED:    7232316  ISSUED:    7149462  USEFUL:      45718  USELESS:      94724
L1D AVERAGE MISS LATENCY: 32.8521 cycles
L1I TOTAL     ACCESS:   12185378  HIT:   11001862  MISS:    1183516
L1I LOAD      ACCESS:    8958774  HIT:    8818625  MISS:     140149
L1I RFO       ACCESS:          0  HIT:          0  MISS:          0
L1I PREFETCH  ACCESS:    3226604  HIT:    2183237  MISS:    1043367
L1I WRITEBACK ACCESS:          0  HIT:          0  MISS:          0
L1I PREFETCH  REQUESTED:    3344776  ISSUED:    3344762  USEFUL:     561101  USELESS:     482201
L1I AVERAGE MISS LATENCY: 15.0502 cycles
L2C TOTAL     ACCESS:    2380413  HIT:    2254702  MISS:     125711
L2C LOAD      ACCESS:     231158  HIT:     195395  MISS:      35763
L2C RFO       ACCESS:     104173  HIT:      70570  MISS:      33603
L2C PREFETCH  ACCESS:    1905794  HIT:    1849459  MISS:      56335
L2C WRITEBACK ACCESS:     139288  HIT:     139278  MISS:         10
L2C PREFETCH  REQUESTED:    1842932  ISSUED:    1842716  USEFUL:       5131  USELESS:      51608
L2C AVERAGE MISS LATENCY: 62.746 cycles
LLC TOTAL     ACCESS:     340024  HIT:     302518  MISS:      37506
LLC LOAD      ACCESS:      35760  HIT:      27635  MISS:       8125
LLC RFO       ACCESS:      33603  HIT:      28107  MISS:       5496
LLC PREFETCH  ACCESS:     226530  HIT:     202900  MISS:      23630
LLC WRITEBACK ACCESS:      44131  HIT:      43876  MISS:        255
LLC PREFETCH  REQUESTED:          0  ISSUED:          0  USEFUL:       1558  USELESS:      20131
LLC AVERAGE MISS LATENCY: 179.679 cycles
Major fault: 0 Minor fault: 4157
I-Shadow cache 408 bytes
Touched + WorthPF tables 24576 bytes 
MMA filter 174 bytes 
FNL filter 272 bytes 
TOTAL PREFETCHER STORAGE SIZE: 98134 bytes
CPU 0 L1I next line prefetcher final stats
CPU 0 L1D next line prefetcher final stats

DRAM Statistics
 CHANNEL 0
 RQ ROW_BUFFER_HIT:       3783  ROW_BUFFER_MISS:      33468
 DBUS_CONGESTED:      23140
 WQ ROW_BUFFER_HIT:       1426  ROW_BUFFER_MISS:      14411  FULL:          0

 AVG_CONGESTED_CYCLE: 4

CPU 0 Branch Prediction Accuracy: 94.7729% MPKI: 9.72684 Average ROB Occupancy at Mispredict: 53.2183

Branch types
NOT_BRANCH: 40695383 81.3908%
BRANCH_DIRECT_JUMP: 422107 0.844214%
BRANCH_INDIRECT: 65 0.00013%
BRANCH_CONDITIONAL: 8105005 16.21%
BRANCH_DIRECT_CALL: 374913 0.749826%
BRANCH_INDIRECT_CALL: 13657 0.027314%
BRANCH_RETURN: 388556 0.777112%
BRANCH_OTHER: 0 0%

