Initialize SIGNATURE TABLE
ST_SET: 1
ST_WAY: 256
ST_TAG_BIT: 16
ST_TAG_MASK: ffff

Initialize PATTERN TABLE
PT_SET: 512
PT_WAY: 4
SIG_DELTA_BIT: 7
C_SIG_BIT: 4
C_DELTA_BIT: 4

Initialize PREFETCH FILTER
FILTER_SET: 1024

*** ChampSim Multicore Out-of-Order Simulator ***

Warmup Instructions: 50000000
Simulation Instructions: 50000000
Number of CPUs: 1
LLC sets: 2048
LLC ways: 16
Off-chip DRAM Size: 4096 MB Channels: 1 Width: 64-bit Data Rate: 3200 MT/s

CPU 0 runs /Users/gandhardeshpande/Desktop/CSE240C/HW1/ChampSim/ipc1_public/spec_gcc_001.champsimtrace.xz
CPU 0 L1I next line prefetcher
Running FNL-MMA for L1I
CPU 0 L1D next line prefetcher
Heartbeat CPU 0 instructions: 10000003 cycles: 3218987 heartbeat IPC: 3.10657 cumulative IPC: 3.10657 (Simulation time: 0 hr 0 min 13 sec) 
Heartbeat CPU 0 instructions: 20000002 cycles: 6463449 heartbeat IPC: 3.08217 cumulative IPC: 3.09432 (Simulation time: 0 hr 0 min 26 sec) 
Heartbeat CPU 0 instructions: 30000000 cycles: 9664200 heartbeat IPC: 3.12427 cumulative IPC: 3.10424 (Simulation time: 0 hr 0 min 39 sec) 
Heartbeat CPU 0 instructions: 40000001 cycles: 12904871 heartbeat IPC: 3.08578 cumulative IPC: 3.0996 (Simulation time: 0 hr 0 min 52 sec) 
Heartbeat CPU 0 instructions: 50000001 cycles: 16145082 heartbeat IPC: 3.08622 cumulative IPC: 3.09692 (Simulation time: 0 hr 1 min 5 sec) 

Warmup complete CPU 0 instructions: 50000001 cycles: 16145082 (Simulation time: 0 hr 1 min 5 sec) 

Heartbeat CPU 0 instructions: 60000000 cycles: 23859564 heartbeat IPC: 1.29626 cumulative IPC: 1.29626 (Simulation time: 0 hr 1 min 16 sec) 
Heartbeat CPU 0 instructions: 70000002 cycles: 31707993 heartbeat IPC: 1.27414 cumulative IPC: 1.28511 (Simulation time: 0 hr 1 min 28 sec) 
Heartbeat CPU 0 instructions: 80000000 cycles: 39237781 heartbeat IPC: 1.32806 cumulative IPC: 1.29911 (Simulation time: 0 hr 1 min 40 sec) 
Heartbeat CPU 0 instructions: 90000001 cycles: 47075972 heartbeat IPC: 1.2758 cumulative IPC: 1.29321 (Simulation time: 0 hr 1 min 51 sec) 
Heartbeat CPU 0 instructions: 100000000 cycles: 55194563 heartbeat IPC: 1.23174 cumulative IPC: 1.28043 (Simulation time: 0 hr 2 min 3 sec) 
Finished CPU 0 instructions: 50000000 cycles: 39049485 cumulative IPC: 1.28043 (Simulation time: 0 hr 2 min 3 sec) 

ChampSim completed all CPUs

Region of Interest Statistics

CPU 0 cumulative IPC: 1.28043 instructions: 50000000 cycles: 39049485
L1D TOTAL     ACCESS:   19331925  HIT:   18226774  MISS:    1105151
L1D LOAD      ACCESS:    7236678  HIT:    6757185  MISS:     479493
L1D RFO       ACCESS:    5117528  HIT:    5038001  MISS:      79527
L1D PREFETCH  ACCESS:    6977719  HIT:    6431588  MISS:     546131
L1D WRITEBACK ACCESS:          0  HIT:          0  MISS:          0
L1D PREFETCH  REQUESTED:    7280372  ISSUED:    7182420  USEFUL:     275903  USELESS:     270240
L1D AVERAGE MISS LATENCY: 25.6458 cycles
L1I TOTAL     ACCESS:   10978306  HIT:   10472296  MISS:     506010
L1I LOAD      ACCESS:    9281375  HIT:    9194527  MISS:      86848
L1I RFO       ACCESS:          0  HIT:          0  MISS:          0
L1I PREFETCH  ACCESS:    1696931  HIT:    1277769  MISS:     419162
L1I WRITEBACK ACCESS:          0  HIT:          0  MISS:          0
L1I PREFETCH  REQUESTED:    1755396  ISSUED:    1755395  USEFUL:     264209  USELESS:     154960
L1I AVERAGE MISS LATENCY: 22.5038 cycles
L2C TOTAL     ACCESS:    2705360  HIT:    2446777  MISS:     258583
L2C LOAD      ACCESS:     526859  HIT:     444614  MISS:      82245
L2C RFO       ACCESS:      74990  HIT:      36715  MISS:      38275
L2C PREFETCH  ACCESS:    1849749  HIT:    1712189  MISS:     137560
L2C WRITEBACK ACCESS:     253762  HIT:     253259  MISS:        503
L2C PREFETCH  REQUESTED:    1918805  ISSUED:    1918504  USEFUL:      32991  USELESS:     104462
L2C AVERAGE MISS LATENCY: 66.4051 cycles
LLC TOTAL     ACCESS:     666315  HIT:     590877  MISS:      75438
LLC LOAD      ACCESS:      82066  HIT:      73180  MISS:       8886
LLC RFO       ACCESS:      38272  HIT:      17624  MISS:      20648
LLC PREFETCH  ACCESS:     453880  HIT:     408937  MISS:      44943
LLC WRITEBACK ACCESS:      92097  HIT:      91136  MISS:        961
LLC PREFETCH  REQUESTED:          0  ISSUED:          0  USEFUL:      10462  USELESS:      38022
LLC AVERAGE MISS LATENCY: 192.521 cycles
Major fault: 0 Minor fault: 6868
I-Shadow cache 408 bytes
Touched + WorthPF tables 24576 bytes 
MMA filter 174 bytes 
FNL filter 272 bytes 
TOTAL PREFETCHER STORAGE SIZE: 98134 bytes
CPU 0 L1I next line prefetcher final stats
CPU 0 L1D next line prefetcher final stats

DRAM Statistics
 CHANNEL 0
 RQ ROW_BUFFER_HIT:      20200  ROW_BUFFER_MISS:      54271
 DBUS_CONGESTED:      44481
 WQ ROW_BUFFER_HIT:       4001  ROW_BUFFER_MISS:      24084  FULL:          0

 AVG_CONGESTED_CYCLE: 6

CPU 0 Branch Prediction Accuracy: 95.8872% MPKI: 9.67286 Average ROB Occupancy at Mispredict: 66.8563

Branch types
NOT_BRANCH: 38240102 76.4802%
BRANCH_DIRECT_JUMP: 653296 1.30659%
BRANCH_INDIRECT: 37098 0.074196%
BRANCH_CONDITIONAL: 8897819 17.7956%
BRANCH_DIRECT_CALL: 992620 1.98524%
BRANCH_INDIRECT_CALL: 93046 0.186092%
BRANCH_RETURN: 1085674 2.17135%
BRANCH_OTHER: 0 0%

