
*** ChampSim Multicore Out-of-Order Simulator ***

Warmup Instructions: 10000000
Simulation Instructions: 100000000
Configuration: 2
Number of CPUs: 1
LLC sets: 2048
LLC ways: 16
Off-chip DRAM Channels: 1 Width: 64-bit Data Rate: 1600 MT/s

CPU 0 runs /datasets/cs240c-wi22-a00-public/data/Assignment2-gz/leslie3d_94B.trace.gz
CPU 0 L1D next line prefetcher
CPU 0 L2C IP-based stride prefetcher
Heartbeat CPU 0 instructions: 1000003 cycles: 597056 heartbeat IPC: 1.67489 cumulative IPC: 1.67489 (Simulation time: 0 hr 0 min 53 sec) 
Heartbeat CPU 0 instructions: 2000002 cycles: 1215973 heartbeat IPC: 1.61572 cumulative IPC: 1.64478 (Simulation time: 0 hr 1 min 47 sec) 
Heartbeat CPU 0 instructions: 3000002 cycles: 1867808 heartbeat IPC: 1.53413 cumulative IPC: 1.60616 (Simulation time: 0 hr 2 min 38 sec) 
Heartbeat CPU 0 instructions: 4000000 cycles: 2519116 heartbeat IPC: 1.53537 cumulative IPC: 1.58786 (Simulation time: 0 hr 3 min 30 sec) 
Heartbeat CPU 0 instructions: 5000002 cycles: 3084141 heartbeat IPC: 1.76984 cumulative IPC: 1.6212 (Simulation time: 0 hr 4 min 16 sec) 
Heartbeat CPU 0 instructions: 6000002 cycles: 3734784 heartbeat IPC: 1.53694 cumulative IPC: 1.60652 (Simulation time: 0 hr 5 min 10 sec) 
Heartbeat CPU 0 instructions: 7000000 cycles: 4385479 heartbeat IPC: 1.53682 cumulative IPC: 1.59618 (Simulation time: 0 hr 5 min 58 sec) 
Heartbeat CPU 0 instructions: 8000000 cycles: 4950484 heartbeat IPC: 1.7699 cumulative IPC: 1.616 (Simulation time: 0 hr 6 min 42 sec) 
Heartbeat CPU 0 instructions: 9000000 cycles: 5601367 heartbeat IPC: 1.53637 cumulative IPC: 1.60675 (Simulation time: 0 hr 7 min 32 sec) 
Heartbeat CPU 0 instructions: 10000001 cycles: 6252587 heartbeat IPC: 1.53558 cumulative IPC: 1.59934 (Simulation time: 0 hr 8 min 22 sec) 

Warmup complete CPU 0 instructions: 10000001 cycles: 6252587 (Simulation time: 0 hr 8 min 22 sec) 

Heartbeat CPU 0 instructions: 11000000 cycles: 7491476 heartbeat IPC: 0.807174 cumulative IPC: 0.807174 (Simulation time: 0 hr 9 min 18 sec) 
Heartbeat CPU 0 instructions: 12000000 cycles: 9231334 heartbeat IPC: 0.57476 cumulative IPC: 0.671423 (Simulation time: 0 hr 10 min 9 sec) 
Heartbeat CPU 0 instructions: 13000000 cycles: 11176263 heartbeat IPC: 0.514158 cumulative IPC: 0.609301 (Simulation time: 0 hr 11 min 2 sec) 
Heartbeat CPU 0 instructions: 14000001 cycles: 13260536 heartbeat IPC: 0.479784 cumulative IPC: 0.57078 (Simulation time: 0 hr 11 min 56 sec) 
Heartbeat CPU 0 instructions: 15000001 cycles: 15307622 heartbeat IPC: 0.488499 cumulative IPC: 0.552179 (Simulation time: 0 hr 12 min 50 sec) 
Heartbeat CPU 0 instructions: 16000000 cycles: 17310264 heartbeat IPC: 0.49934 cumulative IPC: 0.542609 (Simulation time: 0 hr 13 min 44 sec) 
Heartbeat CPU 0 instructions: 17000000 cycles: 19272752 heartbeat IPC: 0.509557 cumulative IPC: 0.537628 (Simulation time: 0 hr 14 min 37 sec) 
Heartbeat CPU 0 instructions: 18000002 cycles: 21270092 heartbeat IPC: 0.500667 cumulative IPC: 0.532712 (Simulation time: 0 hr 15 min 32 sec) 
Heartbeat CPU 0 instructions: 19000001 cycles: 23281885 heartbeat IPC: 0.497069 cumulative IPC: 0.528501 (Simulation time: 0 hr 16 min 28 sec) 
Heartbeat CPU 0 instructions: 20000000 cycles: 25274079 heartbeat IPC: 0.501959 cumulative IPC: 0.525721 (Simulation time: 0 hr 17 min 25 sec) 
Heartbeat CPU 0 instructions: 21000002 cycles: 27215638 heartbeat IPC: 0.515051 cumulative IPC: 0.524733 (Simulation time: 0 hr 18 min 21 sec) 
Heartbeat CPU 0 instructions: 22000002 cycles: 29451895 heartbeat IPC: 0.447176 cumulative IPC: 0.517257 (Simulation time: 0 hr 19 min 18 sec) 
Heartbeat CPU 0 instructions: 23000000 cycles: 31884802 heartbeat IPC: 0.41103 cumulative IPC: 0.507174 (Simulation time: 0 hr 20 min 18 sec) 
Heartbeat CPU 0 instructions: 24000000 cycles: 34328252 heartbeat IPC: 0.409257 cumulative IPC: 0.498652 (Simulation time: 0 hr 21 min 19 sec) 
Heartbeat CPU 0 instructions: 25000000 cycles: 36749330 heartbeat IPC: 0.413039 cumulative IPC: 0.491856 (Simulation time: 0 hr 22 min 22 sec) 
Heartbeat CPU 0 instructions: 26000002 cycles: 39037675 heartbeat IPC: 0.436998 cumulative IPC: 0.488027 (Simulation time: 0 hr 23 min 30 sec) 
Heartbeat CPU 0 instructions: 27000001 cycles: 41376742 heartbeat IPC: 0.42752 cumulative IPC: 0.483997 (Simulation time: 0 hr 24 min 42 sec) 
Heartbeat CPU 0 instructions: 28000000 cycles: 43758099 heartbeat IPC: 0.419928 cumulative IPC: 0.479929 (Simulation time: 0 hr 25 min 52 sec) 
Heartbeat CPU 0 instructions: 29000000 cycles: 46108391 heartbeat IPC: 0.425479 cumulative IPC: 0.476718 (Simulation time: 0 hr 27 min 1 sec) 
Heartbeat CPU 0 instructions: 30000000 cycles: 47544565 heartbeat IPC: 0.696294 cumulative IPC: 0.484356 (Simulation time: 0 hr 27 min 54 sec) 
Heartbeat CPU 0 instructions: 31000002 cycles: 48876445 heartbeat IPC: 0.75082 cumulative IPC: 0.492682 (Simulation time: 0 hr 28 min 46 sec) 
Heartbeat CPU 0 instructions: 32000000 cycles: 50234453 heartbeat IPC: 0.736371 cumulative IPC: 0.500206 (Simulation time: 0 hr 29 min 38 sec) 
Heartbeat CPU 0 instructions: 33000001 cycles: 51571833 heartbeat IPC: 0.747731 cumulative IPC: 0.507511 (Simulation time: 0 hr 30 min 32 sec) 
Heartbeat CPU 0 instructions: 34000003 cycles: 52930199 heartbeat IPC: 0.73618 cumulative IPC: 0.514165 (Simulation time: 0 hr 31 min 24 sec) 
Heartbeat CPU 0 instructions: 35000000 cycles: 54261771 heartbeat IPC: 0.75099 cumulative IPC: 0.520734 (Simulation time: 0 hr 32 min 16 sec) 
Heartbeat CPU 0 instructions: 36000000 cycles: 55645329 heartbeat IPC: 0.722774 cumulative IPC: 0.526393 (Simulation time: 0 hr 33 min 7 sec) 
Heartbeat CPU 0 instructions: 37000003 cycles: 56996283 heartbeat IPC: 0.74022 cumulative IPC: 0.532086 (Simulation time: 0 hr 34 min 1 sec) 
Heartbeat CPU 0 instructions: 38000000 cycles: 58341532 heartbeat IPC: 0.743355 cumulative IPC: 0.537542 (Simulation time: 0 hr 34 min 55 sec) 
Heartbeat CPU 0 instructions: 39000001 cycles: 59691879 heartbeat IPC: 0.740551 cumulative IPC: 0.542672 (Simulation time: 0 hr 35 min 46 sec) 
Heartbeat CPU 0 instructions: 40000000 cycles: 61007831 heartbeat IPC: 0.759905 cumulative IPC: 0.547893 (Simulation time: 0 hr 36 min 40 sec) 
Heartbeat CPU 0 instructions: 41000002 cycles: 62371411 heartbeat IPC: 0.733365 cumulative IPC: 0.552399 (Simulation time: 0 hr 37 min 34 sec) 
Heartbeat CPU 0 instructions: 42000002 cycles: 63710893 heartbeat IPC: 0.746557 cumulative IPC: 0.556926 (Simulation time: 0 hr 38 min 30 sec) 
Heartbeat CPU 0 instructions: 43000002 cycles: 65079653 heartbeat IPC: 0.730588 cumulative IPC: 0.560966 (Simulation time: 0 hr 39 min 23 sec) 
Heartbeat CPU 0 instructions: 44000000 cycles: 66415354 heartbeat IPC: 0.748669 cumulative IPC: 0.565134 (Simulation time: 0 hr 40 min 17 sec) 
Heartbeat CPU 0 instructions: 45000003 cycles: 67775499 heartbeat IPC: 0.735218 cumulative IPC: 0.568894 (Simulation time: 0 hr 41 min 11 sec) 
Heartbeat CPU 0 instructions: 46000001 cycles: 69177446 heartbeat IPC: 0.713292 cumulative IPC: 0.572111 (Simulation time: 0 hr 42 min 3 sec) 
Heartbeat CPU 0 instructions: 47000000 cycles: 70515041 heartbeat IPC: 0.74761 cumulative IPC: 0.575764 (Simulation time: 0 hr 42 min 55 sec) 
Heartbeat CPU 0 instructions: 48000000 cycles: 71900415 heartbeat IPC: 0.721827 cumulative IPC: 0.578846 (Simulation time: 0 hr 43 min 51 sec) 
Heartbeat CPU 0 instructions: 49000001 cycles: 73237878 heartbeat IPC: 0.747685 cumulative IPC: 0.582217 (Simulation time: 0 hr 44 min 46 sec) 
Heartbeat CPU 0 instructions: 50000001 cycles: 74597348 heartbeat IPC: 0.735581 cumulative IPC: 0.585268 (Simulation time: 0 hr 45 min 44 sec) 
Heartbeat CPU 0 instructions: 51000003 cycles: 75928554 heartbeat IPC: 0.7512 cumulative IPC: 0.588438 (Simulation time: 0 hr 46 min 45 sec) 
Heartbeat CPU 0 instructions: 52000000 cycles: 77243310 heartbeat IPC: 0.760595 cumulative IPC: 0.591627 (Simulation time: 0 hr 47 min 47 sec) 
Heartbeat CPU 0 instructions: 53000002 cycles: 78614506 heartbeat IPC: 0.729292 cumulative IPC: 0.594235 (Simulation time: 0 hr 48 min 49 sec) 
Heartbeat CPU 0 instructions: 54000001 cycles: 79934375 heartbeat IPC: 0.75765 cumulative IPC: 0.597162 (Simulation time: 0 hr 49 min 41 sec) 
Heartbeat CPU 0 instructions: 55000000 cycles: 81304381 heartbeat IPC: 0.729923 cumulative IPC: 0.599586 (Simulation time: 0 hr 50 min 32 sec) 
Heartbeat CPU 0 instructions: 56000000 cycles: 82649975 heartbeat IPC: 0.743166 cumulative IPC: 0.602115 (Simulation time: 0 hr 51 min 21 sec) 
Heartbeat CPU 0 instructions: 57000000 cycles: 84011793 heartbeat IPC: 0.734313 cumulative IPC: 0.60443 (Simulation time: 0 hr 52 min 8 sec) 
Heartbeat CPU 0 instructions: 58000001 cycles: 85355530 heartbeat IPC: 0.744194 cumulative IPC: 0.606804 (Simulation time: 0 hr 52 min 56 sec) 
Heartbeat CPU 0 instructions: 59000003 cycles: 86666446 heartbeat IPC: 0.762827 cumulative IPC: 0.609348 (Simulation time: 0 hr 53 min 42 sec) 
Heartbeat CPU 0 instructions: 60000000 cycles: 88018442 heartbeat IPC: 0.739645 cumulative IPC: 0.611502 (Simulation time: 0 hr 54 min 32 sec) 
Heartbeat CPU 0 instructions: 61000001 cycles: 89348678 heartbeat IPC: 0.751747 cumulative IPC: 0.613747 (Simulation time: 0 hr 55 min 22 sec) 
Heartbeat CPU 0 instructions: 62000000 cycles: 90695896 heartbeat IPC: 0.74227 cumulative IPC: 0.615798 (Simulation time: 0 hr 56 min 9 sec) 
Heartbeat CPU 0 instructions: 63000000 cycles: 92026361 heartbeat IPC: 0.751617 cumulative IPC: 0.617904 (Simulation time: 0 hr 57 min 2 sec) 
Heartbeat CPU 0 instructions: 64000000 cycles: 93379116 heartbeat IPC: 0.739232 cumulative IPC: 0.619788 (Simulation time: 0 hr 57 min 51 sec) 
Heartbeat CPU 0 instructions: 65000000 cycles: 94738276 heartbeat IPC: 0.735749 cumulative IPC: 0.621569 (Simulation time: 0 hr 58 min 40 sec) 
Heartbeat CPU 0 instructions: 66000000 cycles: 96098263 heartbeat IPC: 0.735301 cumulative IPC: 0.623291 (Simulation time: 0 hr 59 min 28 sec) 
Heartbeat CPU 0 instructions: 67000003 cycles: 97449538 heartbeat IPC: 0.740044 cumulative IPC: 0.625021 (Simulation time: 1 hr 0 min 14 sec) 
Heartbeat CPU 0 instructions: 68000000 cycles: 98790496 heartbeat IPC: 0.745733 cumulative IPC: 0.62677 (Simulation time: 1 hr 1 min 1 sec) 
Heartbeat CPU 0 instructions: 69000000 cycles: 100132763 heartbeat IPC: 0.745008 cumulative IPC: 0.628461 (Simulation time: 1 hr 1 min 46 sec) 
Heartbeat CPU 0 instructions: 70000001 cycles: 101467389 heartbeat IPC: 0.749274 cumulative IPC: 0.630154 (Simulation time: 1 hr 2 min 32 sec) 
Heartbeat CPU 0 instructions: 71000002 cycles: 102827255 heartbeat IPC: 0.735367 cumulative IPC: 0.631636 (Simulation time: 1 hr 3 min 18 sec) 
Heartbeat CPU 0 instructions: 72000000 cycles: 104162277 heartbeat IPC: 0.74905 cumulative IPC: 0.633237 (Simulation time: 1 hr 4 min 3 sec) 
Heartbeat CPU 0 instructions: 73000000 cycles: 105513305 heartbeat IPC: 0.740177 cumulative IPC: 0.634692 (Simulation time: 1 hr 4 min 49 sec) 
Heartbeat CPU 0 instructions: 74000000 cycles: 106844240 heartbeat IPC: 0.751351 cumulative IPC: 0.636236 (Simulation time: 1 hr 5 min 33 sec) 
Heartbeat CPU 0 instructions: 75000002 cycles: 108169022 heartbeat IPC: 0.754843 cumulative IPC: 0.637777 (Simulation time: 1 hr 6 min 16 sec) 
Heartbeat CPU 0 instructions: 76000000 cycles: 109523143 heartbeat IPC: 0.738485 cumulative IPC: 0.639098 (Simulation time: 1 hr 7 min 0 sec) 
Heartbeat CPU 0 instructions: 77000000 cycles: 110851645 heartbeat IPC: 0.752728 cumulative IPC: 0.640541 (Simulation time: 1 hr 7 min 43 sec) 
Heartbeat CPU 0 instructions: 78000003 cycles: 112235480 heartbeat IPC: 0.722632 cumulative IPC: 0.641613 (Simulation time: 1 hr 8 min 27 sec) 
Heartbeat CPU 0 instructions: 79000000 cycles: 113723298 heartbeat IPC: 0.672123 cumulative IPC: 0.642035 (Simulation time: 1 hr 9 min 6 sec) 
Heartbeat CPU 0 instructions: 80000000 cycles: 115318846 heartbeat IPC: 0.626744 cumulative IPC: 0.641812 (Simulation time: 1 hr 9 min 47 sec) 
Heartbeat CPU 0 instructions: 81000002 cycles: 116911978 heartbeat IPC: 0.627696 cumulative IPC: 0.641608 (Simulation time: 1 hr 10 min 25 sec) 
Heartbeat CPU 0 instructions: 82000003 cycles: 118573182 heartbeat IPC: 0.601974 cumulative IPC: 0.641022 (Simulation time: 1 hr 11 min 3 sec) 
Heartbeat CPU 0 instructions: 83000003 cycles: 120243993 heartbeat IPC: 0.598512 cumulative IPC: 0.640399 (Simulation time: 1 hr 11 min 38 sec) 
Heartbeat CPU 0 instructions: 84000000 cycles: 121873177 heartbeat IPC: 0.613802 cumulative IPC: 0.640024 (Simulation time: 1 hr 12 min 12 sec) 
Heartbeat CPU 0 instructions: 85000001 cycles: 123527312 heartbeat IPC: 0.604546 cumulative IPC: 0.639524 (Simulation time: 1 hr 12 min 47 sec) 
Heartbeat CPU 0 instructions: 86000002 cycles: 125156745 heartbeat IPC: 0.613711 cumulative IPC: 0.63917 (Simulation time: 1 hr 13 min 19 sec) 
Heartbeat CPU 0 instructions: 87000000 cycles: 126792967 heartbeat IPC: 0.611163 cumulative IPC: 0.63879 (Simulation time: 1 hr 13 min 52 sec) 
Heartbeat CPU 0 instructions: 88000000 cycles: 128453800 heartbeat IPC: 0.602108 cumulative IPC: 0.638292 (Simulation time: 1 hr 14 min 27 sec) 
Heartbeat CPU 0 instructions: 89000002 cycles: 130079687 heartbeat IPC: 0.61505 cumulative IPC: 0.637986 (Simulation time: 1 hr 15 min 1 sec) 
Heartbeat CPU 0 instructions: 90000001 cycles: 131712404 heartbeat IPC: 0.612475 cumulative IPC: 0.637654 (Simulation time: 1 hr 15 min 32 sec) 
Heartbeat CPU 0 instructions: 91000003 cycles: 133341382 heartbeat IPC: 0.613883 cumulative IPC: 0.63735 (Simulation time: 1 hr 16 min 3 sec) 
Heartbeat CPU 0 instructions: 92000000 cycles: 134982737 heartbeat IPC: 0.609251 cumulative IPC: 0.636991 (Simulation time: 1 hr 16 min 35 sec) 
Heartbeat CPU 0 instructions: 93000001 cycles: 136651526 heartbeat IPC: 0.599238 cumulative IPC: 0.636508 (Simulation time: 1 hr 17 min 5 sec) 
Heartbeat CPU 0 instructions: 94000003 cycles: 138299511 heartbeat IPC: 0.606803 cumulative IPC: 0.636137 (Simulation time: 1 hr 17 min 36 sec) 
Heartbeat CPU 0 instructions: 95000002 cycles: 139992869 heartbeat IPC: 0.590542 cumulative IPC: 0.63556 (Simulation time: 1 hr 18 min 5 sec) 
Heartbeat CPU 0 instructions: 96000000 cycles: 141636895 heartbeat IPC: 0.608262 cumulative IPC: 0.635229 (Simulation time: 1 hr 18 min 34 sec) 
Heartbeat CPU 0 instructions: 97000003 cycles: 143646139 heartbeat IPC: 0.497701 cumulative IPC: 0.633218 (Simulation time: 1 hr 19 min 5 sec) 
Heartbeat CPU 0 instructions: 98000002 cycles: 149316983 heartbeat IPC: 0.17634 cumulative IPC: 0.615108 (Simulation time: 1 hr 20 min 3 sec) 
Heartbeat CPU 0 instructions: 99000000 cycles: 152454659 heartbeat IPC: 0.318707 cumulative IPC: 0.608746 (Simulation time: 1 hr 20 min 47 sec) 
Heartbeat CPU 0 instructions: 100000000 cycles: 154064530 heartbeat IPC: 0.621168 cumulative IPC: 0.608882 (Simulation time: 1 hr 21 min 9 sec) 
Heartbeat CPU 0 instructions: 101000002 cycles: 155321196 heartbeat IPC: 0.795758 cumulative IPC: 0.610457 (Simulation time: 1 hr 21 min 26 sec) 
Heartbeat CPU 0 instructions: 102000003 cycles: 156724462 heartbeat IPC: 0.712624 cumulative IPC: 0.61141 (Simulation time: 1 hr 21 min 44 sec) 
Heartbeat CPU 0 instructions: 103000002 cycles: 158179285 heartbeat IPC: 0.687368 cumulative IPC: 0.612137 (Simulation time: 1 hr 22 min 4 sec) 
Heartbeat CPU 0 instructions: 104000000 cycles: 159671833 heartbeat IPC: 0.669994 cumulative IPC: 0.6127 (Simulation time: 1 hr 22 min 22 sec) 
Heartbeat CPU 0 instructions: 105000001 cycles: 161215090 heartbeat IPC: 0.647981 cumulative IPC: 0.613052 (Simulation time: 1 hr 22 min 40 sec) 
Heartbeat CPU 0 instructions: 106000001 cycles: 162766293 heartbeat IPC: 0.644661 cumulative IPC: 0.613365 (Simulation time: 1 hr 22 min 58 sec) 
Heartbeat CPU 0 instructions: 107000001 cycles: 164303118 heartbeat IPC: 0.650692 cumulative IPC: 0.613728 (Simulation time: 1 hr 23 min 15 sec) 
Heartbeat CPU 0 instructions: 108000000 cycles: 165850547 heartbeat IPC: 0.646233 cumulative IPC: 0.614043 (Simulation time: 1 hr 23 min 31 sec) 
Heartbeat CPU 0 instructions: 109000001 cycles: 167359328 heartbeat IPC: 0.662787 cumulative IPC: 0.614499 (Simulation time: 1 hr 23 min 47 sec) 
Heartbeat CPU 0 instructions: 110000001 cycles: 168852942 heartbeat IPC: 0.669517 cumulative IPC: 0.615005 (Simulation time: 1 hr 24 min 3 sec) 
Finished CPU 0 instructions: 100000000 cycles: 162600355 cummulative IPC: 0.615005 (Simulation time: 1 hr 24 min 3 sec) 

ChampSim completed all CPUs

Region of Interest Statistics

CPU 0 cummulative IPC: 0.615005 instructions: 100000000 cycles: 162600355
LLC TOTAL     ACCESS:    4606609  HIT:     961750  MISS:    3644859
LLC LOAD      ACCESS:     463831  HIT:      59537  MISS:     404294
LLC RFO       ACCESS:     743428  HIT:      95023  MISS:     648405
LLC PREFETCH  ACCESS:    2299485  HIT:     153330  MISS:    2146155
LLC WRITEBACK ACCESS:    1099865  HIT:     653860  MISS:     446005
