
*** ChampSim Multicore Out-of-Order Simulator ***

Warmup Instructions: 10000000
Simulation Instructions: 100000000
Configuration: 2
Number of CPUs: 1
LLC sets: 2048
LLC ways: 16
Off-chip DRAM Channels: 1 Width: 64-bit Data Rate: 1600 MT/s

CPU 0 runs /datasets/cs240c-wi22-a00-public/data/Assignment2-gz/wrf_1228B.trace.gz
CPU 0 L1D next line prefetcher
CPU 0 L2C IP-based stride prefetcher
Heartbeat CPU 0 instructions: 1000003 cycles: 591062 heartbeat IPC: 1.69187 cumulative IPC: 1.69187 (Simulation time: 0 hr 0 min 51 sec) 
Heartbeat CPU 0 instructions: 2000002 cycles: 1111152 heartbeat IPC: 1.92274 cumulative IPC: 1.79994 (Simulation time: 0 hr 1 min 38 sec) 
Heartbeat CPU 0 instructions: 3000000 cycles: 1729111 heartbeat IPC: 1.61823 cumulative IPC: 1.735 (Simulation time: 0 hr 2 min 31 sec) 
Heartbeat CPU 0 instructions: 4000000 cycles: 2349763 heartbeat IPC: 1.61121 cumulative IPC: 1.7023 (Simulation time: 0 hr 3 min 26 sec) 
Heartbeat CPU 0 instructions: 5000000 cycles: 3052127 heartbeat IPC: 1.42376 cumulative IPC: 1.6382 (Simulation time: 0 hr 4 min 24 sec) 
Heartbeat CPU 0 instructions: 6000000 cycles: 3612218 heartbeat IPC: 1.78542 cumulative IPC: 1.66103 (Simulation time: 0 hr 5 min 26 sec) 
Heartbeat CPU 0 instructions: 7000001 cycles: 4164979 heartbeat IPC: 1.8091 cumulative IPC: 1.68068 (Simulation time: 0 hr 6 min 26 sec) 
Heartbeat CPU 0 instructions: 8000000 cycles: 4716343 heartbeat IPC: 1.81368 cumulative IPC: 1.69623 (Simulation time: 0 hr 7 min 31 sec) 
Heartbeat CPU 0 instructions: 9000002 cycles: 5266533 heartbeat IPC: 1.81756 cumulative IPC: 1.7089 (Simulation time: 0 hr 8 min 36 sec) 
Heartbeat CPU 0 instructions: 10000001 cycles: 5819429 heartbeat IPC: 1.80866 cumulative IPC: 1.71838 (Simulation time: 0 hr 9 min 35 sec) 

Warmup complete CPU 0 instructions: 10000001 cycles: 5819429 (Simulation time: 0 hr 9 min 35 sec) 

Heartbeat CPU 0 instructions: 11000000 cycles: 6678865 heartbeat IPC: 1.16355 cumulative IPC: 1.16355 (Simulation time: 0 hr 10 min 34 sec) 
Heartbeat CPU 0 instructions: 12000000 cycles: 7552568 heartbeat IPC: 1.14455 cumulative IPC: 1.15398 (Simulation time: 0 hr 11 min 33 sec) 
Heartbeat CPU 0 instructions: 13000003 cycles: 8432912 heartbeat IPC: 1.13592 cumulative IPC: 1.14789 (Simulation time: 0 hr 12 min 29 sec) 
Heartbeat CPU 0 instructions: 14000002 cycles: 9315369 heartbeat IPC: 1.1332 cumulative IPC: 1.14418 (Simulation time: 0 hr 13 min 28 sec) 
Heartbeat CPU 0 instructions: 15000001 cycles: 10147754 heartbeat IPC: 1.20137 cumulative IPC: 1.15518 (Simulation time: 0 hr 14 min 25 sec) 
Heartbeat CPU 0 instructions: 16000000 cycles: 10969441 heartbeat IPC: 1.21701 cumulative IPC: 1.16505 (Simulation time: 0 hr 15 min 22 sec) 
Heartbeat CPU 0 instructions: 17000002 cycles: 11794583 heartbeat IPC: 1.21192 cumulative IPC: 1.17152 (Simulation time: 0 hr 16 min 10 sec) 
Heartbeat CPU 0 instructions: 18000003 cycles: 12595374 heartbeat IPC: 1.24877 cumulative IPC: 1.18065 (Simulation time: 0 hr 17 min 3 sec) 
Heartbeat CPU 0 instructions: 19000000 cycles: 13390132 heartbeat IPC: 1.25824 cumulative IPC: 1.18879 (Simulation time: 0 hr 17 min 54 sec) 
Heartbeat CPU 0 instructions: 20000000 cycles: 14175441 heartbeat IPC: 1.27338 cumulative IPC: 1.19674 (Simulation time: 0 hr 18 min 39 sec) 
Heartbeat CPU 0 instructions: 21000000 cycles: 14948164 heartbeat IPC: 1.29412 cumulative IPC: 1.20499 (Simulation time: 0 hr 19 min 27 sec) 
Heartbeat CPU 0 instructions: 22000000 cycles: 15755651 heartbeat IPC: 1.23841 cumulative IPC: 1.2077 (Simulation time: 0 hr 20 min 18 sec) 
Heartbeat CPU 0 instructions: 23000003 cycles: 16703414 heartbeat IPC: 1.05512 cumulative IPC: 1.19442 (Simulation time: 0 hr 21 min 12 sec) 
Heartbeat CPU 0 instructions: 24000000 cycles: 17624862 heartbeat IPC: 1.08525 cumulative IPC: 1.18589 (Simulation time: 0 hr 22 min 8 sec) 
Heartbeat CPU 0 instructions: 25000000 cycles: 18548871 heartbeat IPC: 1.08224 cumulative IPC: 1.17837 (Simulation time: 0 hr 22 min 59 sec) 
Heartbeat CPU 0 instructions: 26000003 cycles: 19463344 heartbeat IPC: 1.09353 cumulative IPC: 1.17268 (Simulation time: 0 hr 23 min 47 sec) 
Heartbeat CPU 0 instructions: 27000003 cycles: 20375336 heartbeat IPC: 1.0965 cumulative IPC: 1.16791 (Simulation time: 0 hr 24 min 33 sec) 
Heartbeat CPU 0 instructions: 28000000 cycles: 21280845 heartbeat IPC: 1.10435 cumulative IPC: 1.16419 (Simulation time: 0 hr 25 min 19 sec) 
Heartbeat CPU 0 instructions: 29000003 cycles: 22977468 heartbeat IPC: 0.589408 cumulative IPC: 1.10735 (Simulation time: 0 hr 26 min 18 sec) 
Heartbeat CPU 0 instructions: 30000000 cycles: 24712857 heartbeat IPC: 0.576238 cumulative IPC: 1.05857 (Simulation time: 0 hr 27 min 13 sec) 
Heartbeat CPU 0 instructions: 31000003 cycles: 26512197 heartbeat IPC: 0.555761 cumulative IPC: 1.01485 (Simulation time: 0 hr 28 min 6 sec) 
Heartbeat CPU 0 instructions: 32000000 cycles: 28147253 heartbeat IPC: 0.611598 cumulative IPC: 0.985318 (Simulation time: 0 hr 28 min 56 sec) 
Heartbeat CPU 0 instructions: 33000002 cycles: 29547920 heartbeat IPC: 0.713947 cumulative IPC: 0.969299 (Simulation time: 0 hr 29 min 50 sec) 
Heartbeat CPU 0 instructions: 34000002 cycles: 30949193 heartbeat IPC: 0.713637 cumulative IPC: 0.955043 (Simulation time: 0 hr 30 min 42 sec) 
Heartbeat CPU 0 instructions: 35000001 cycles: 32639728 heartbeat IPC: 0.591528 cumulative IPC: 0.93213 (Simulation time: 0 hr 31 min 38 sec) 
Heartbeat CPU 0 instructions: 36000000 cycles: 33617176 heartbeat IPC: 1.02307 cumulative IPC: 0.935328 (Simulation time: 0 hr 32 min 22 sec) 
Heartbeat CPU 0 instructions: 37000001 cycles: 34584548 heartbeat IPC: 1.03373 cumulative IPC: 0.938637 (Simulation time: 0 hr 33 min 9 sec) 
Heartbeat CPU 0 instructions: 38000003 cycles: 35530276 heartbeat IPC: 1.05739 cumulative IPC: 0.942417 (Simulation time: 0 hr 33 min 55 sec) 
Heartbeat CPU 0 instructions: 39000002 cycles: 36513099 heartbeat IPC: 1.01748 cumulative IPC: 0.94482 (Simulation time: 0 hr 34 min 44 sec) 
Heartbeat CPU 0 instructions: 40000000 cycles: 37458141 heartbeat IPC: 1.05815 cumulative IPC: 0.948205 (Simulation time: 0 hr 35 min 29 sec) 
Heartbeat CPU 0 instructions: 41000000 cycles: 38415406 heartbeat IPC: 1.04464 cumulative IPC: 0.951038 (Simulation time: 0 hr 36 min 17 sec) 
Heartbeat CPU 0 instructions: 42000002 cycles: 39365329 heartbeat IPC: 1.05272 cumulative IPC: 0.953917 (Simulation time: 0 hr 37 min 1 sec) 
Heartbeat CPU 0 instructions: 43000002 cycles: 40328950 heartbeat IPC: 1.03775 cumulative IPC: 0.956258 (Simulation time: 0 hr 37 min 46 sec) 
Heartbeat CPU 0 instructions: 44000000 cycles: 41228263 heartbeat IPC: 1.11196 cumulative IPC: 0.960212 (Simulation time: 0 hr 38 min 31 sec) 
Heartbeat CPU 0 instructions: 45000000 cycles: 42114001 heartbeat IPC: 1.129 cumulative IPC: 0.964332 (Simulation time: 0 hr 39 min 15 sec) 
Heartbeat CPU 0 instructions: 46000001 cycles: 42998974 heartbeat IPC: 1.12998 cumulative IPC: 0.968274 (Simulation time: 0 hr 40 min 0 sec) 
Heartbeat CPU 0 instructions: 47000001 cycles: 43889061 heartbeat IPC: 1.12349 cumulative IPC: 0.971903 (Simulation time: 0 hr 40 min 41 sec) 
Heartbeat CPU 0 instructions: 48000000 cycles: 44769472 heartbeat IPC: 1.13583 cumulative IPC: 0.975609 (Simulation time: 0 hr 41 min 23 sec) 
Heartbeat CPU 0 instructions: 49000001 cycles: 45656154 heartbeat IPC: 1.1278 cumulative IPC: 0.978996 (Simulation time: 0 hr 42 min 4 sec) 
Heartbeat CPU 0 instructions: 50000002 cycles: 46548125 heartbeat IPC: 1.12111 cumulative IPC: 0.982109 (Simulation time: 0 hr 42 min 46 sec) 
Heartbeat CPU 0 instructions: 51000001 cycles: 47428480 heartbeat IPC: 1.1359 cumulative IPC: 0.985363 (Simulation time: 0 hr 43 min 26 sec) 
Heartbeat CPU 0 instructions: 52000000 cycles: 48364504 heartbeat IPC: 1.06835 cumulative IPC: 0.987188 (Simulation time: 0 hr 44 min 10 sec) 
Heartbeat CPU 0 instructions: 53000002 cycles: 49358619 heartbeat IPC: 1.00592 cumulative IPC: 0.987616 (Simulation time: 0 hr 44 min 58 sec) 
Heartbeat CPU 0 instructions: 54000001 cycles: 50358578 heartbeat IPC: 1.00004 cumulative IPC: 0.987895 (Simulation time: 0 hr 45 min 43 sec) 
Heartbeat CPU 0 instructions: 55000003 cycles: 51344789 heartbeat IPC: 1.01398 cumulative IPC: 0.98846 (Simulation time: 0 hr 46 min 30 sec) 
Heartbeat CPU 0 instructions: 56000000 cycles: 52343154 heartbeat IPC: 1.00163 cumulative IPC: 0.988743 (Simulation time: 0 hr 47 min 19 sec) 
Heartbeat CPU 0 instructions: 57000001 cycles: 53330960 heartbeat IPC: 1.01235 cumulative IPC: 0.989234 (Simulation time: 0 hr 48 min 10 sec) 
Heartbeat CPU 0 instructions: 58000000 cycles: 54314643 heartbeat IPC: 1.01659 cumulative IPC: 0.989788 (Simulation time: 0 hr 49 min 0 sec) 
Heartbeat CPU 0 instructions: 59000001 cycles: 55843840 heartbeat IPC: 0.653939 cumulative IPC: 0.979522 (Simulation time: 0 hr 49 min 51 sec) 
Heartbeat CPU 0 instructions: 60000000 cycles: 57367888 heartbeat IPC: 0.656147 cumulative IPC: 0.969961 (Simulation time: 0 hr 50 min 47 sec) 
Heartbeat CPU 0 instructions: 61000000 cycles: 59394733 heartbeat IPC: 0.493378 cumulative IPC: 0.951931 (Simulation time: 0 hr 51 min 40 sec) 
Heartbeat CPU 0 instructions: 62000000 cycles: 60986325 heartbeat IPC: 0.628302 cumulative IPC: 0.942594 (Simulation time: 0 hr 52 min 34 sec) 
Heartbeat CPU 0 instructions: 63000001 cycles: 62428996 heartbeat IPC: 0.693159 cumulative IPC: 0.936238 (Simulation time: 0 hr 53 min 26 sec) 
Heartbeat CPU 0 instructions: 64000000 cycles: 63885879 heartbeat IPC: 0.686396 cumulative IPC: 0.929969 (Simulation time: 0 hr 54 min 20 sec) 
Heartbeat CPU 0 instructions: 65000003 cycles: 65380707 heartbeat IPC: 0.668975 cumulative IPC: 0.923419 (Simulation time: 0 hr 55 min 16 sec) 
Heartbeat CPU 0 instructions: 66000000 cycles: 66876334 heartbeat IPC: 0.668614 cumulative IPC: 0.917177 (Simulation time: 0 hr 56 min 10 sec) 
Heartbeat CPU 0 instructions: 67000000 cycles: 68370857 heartbeat IPC: 0.66911 cumulative IPC: 0.91125 (Simulation time: 0 hr 57 min 4 sec) 
Heartbeat CPU 0 instructions: 68000000 cycles: 69865317 heartbeat IPC: 0.669138 cumulative IPC: 0.905601 (Simulation time: 0 hr 57 min 54 sec) 
Heartbeat CPU 0 instructions: 69000000 cycles: 71372562 heartbeat IPC: 0.663462 cumulative IPC: 0.900033 (Simulation time: 0 hr 58 min 47 sec) 
Heartbeat CPU 0 instructions: 70000001 cycles: 72869144 heartbeat IPC: 0.66819 cumulative IPC: 0.894858 (Simulation time: 0 hr 59 min 40 sec) 
Heartbeat CPU 0 instructions: 71000001 cycles: 74363162 heartbeat IPC: 0.669336 cumulative IPC: 0.889943 (Simulation time: 1 hr 0 min 32 sec) 
Heartbeat CPU 0 instructions: 72000000 cycles: 75846116 heartbeat IPC: 0.674329 cumulative IPC: 0.885377 (Simulation time: 1 hr 1 min 20 sec) 
Heartbeat CPU 0 instructions: 73000003 cycles: 77333825 heartbeat IPC: 0.672176 cumulative IPC: 0.880942 (Simulation time: 1 hr 2 min 11 sec) 
Heartbeat CPU 0 instructions: 74000000 cycles: 78831353 heartbeat IPC: 0.667765 cumulative IPC: 0.876569 (Simulation time: 1 hr 3 min 0 sec) 
Heartbeat CPU 0 instructions: 75000001 cycles: 80325327 heartbeat IPC: 0.669356 cumulative IPC: 0.872414 (Simulation time: 1 hr 3 min 49 sec) 
Heartbeat CPU 0 instructions: 76000000 cycles: 81821759 heartbeat IPC: 0.668256 cumulative IPC: 0.868394 (Simulation time: 1 hr 4 min 41 sec) 
Heartbeat CPU 0 instructions: 77000003 cycles: 83315554 heartbeat IPC: 0.669438 cumulative IPC: 0.864559 (Simulation time: 1 hr 5 min 31 sec) 
Heartbeat CPU 0 instructions: 78000001 cycles: 84810253 heartbeat IPC: 0.66903 cumulative IPC: 0.86086 (Simulation time: 1 hr 6 min 23 sec) 
Heartbeat CPU 0 instructions: 79000000 cycles: 86306684 heartbeat IPC: 0.668256 cumulative IPC: 0.857279 (Simulation time: 1 hr 7 min 15 sec) 
Heartbeat CPU 0 instructions: 80000000 cycles: 87797063 heartbeat IPC: 0.67097 cumulative IPC: 0.853891 (Simulation time: 1 hr 8 min 5 sec) 
Heartbeat CPU 0 instructions: 81000001 cycles: 89280983 heartbeat IPC: 0.673891 cumulative IPC: 0.850691 (Simulation time: 1 hr 8 min 54 sec) 
Heartbeat CPU 0 instructions: 82000000 cycles: 90764058 heartbeat IPC: 0.674274 cumulative IPC: 0.847611 (Simulation time: 1 hr 9 min 43 sec) 
Heartbeat CPU 0 instructions: 83000000 cycles: 92247407 heartbeat IPC: 0.67415 cumulative IPC: 0.844634 (Simulation time: 1 hr 10 min 30 sec) 
Heartbeat CPU 0 instructions: 84000000 cycles: 93742315 heartbeat IPC: 0.668938 cumulative IPC: 0.841647 (Simulation time: 1 hr 11 min 14 sec) 
Heartbeat CPU 0 instructions: 85000000 cycles: 95237200 heartbeat IPC: 0.668948 cumulative IPC: 0.838759 (Simulation time: 1 hr 11 min 56 sec) 
Heartbeat CPU 0 instructions: 86000000 cycles: 96730997 heartbeat IPC: 0.669435 cumulative IPC: 0.835977 (Simulation time: 1 hr 12 min 35 sec) 
Heartbeat CPU 0 instructions: 87000000 cycles: 98225842 heartbeat IPC: 0.668966 cumulative IPC: 0.833275 (Simulation time: 1 hr 13 min 10 sec) 
Heartbeat CPU 0 instructions: 88000000 cycles: 99721401 heartbeat IPC: 0.668646 cumulative IPC: 0.830653 (Simulation time: 1 hr 13 min 52 sec) 
Heartbeat CPU 0 instructions: 89000002 cycles: 101217034 heartbeat IPC: 0.668615 cumulative IPC: 0.828113 (Simulation time: 1 hr 14 min 33 sec) 
Heartbeat CPU 0 instructions: 90000000 cycles: 102701368 heartbeat IPC: 0.673701 cumulative IPC: 0.825747 (Simulation time: 1 hr 15 min 11 sec) 
Heartbeat CPU 0 instructions: 91000000 cycles: 104184965 heartbeat IPC: 0.674038 cumulative IPC: 0.823459 (Simulation time: 1 hr 15 min 47 sec) 
Heartbeat CPU 0 instructions: 92000000 cycles: 105669093 heartbeat IPC: 0.673796 cumulative IPC: 0.821235 (Simulation time: 1 hr 16 min 22 sec) 
Heartbeat CPU 0 instructions: 93000000 cycles: 107158834 heartbeat IPC: 0.671258 cumulative IPC: 0.81903 (Simulation time: 1 hr 16 min 57 sec) 
Heartbeat CPU 0 instructions: 94000003 cycles: 108652688 heartbeat IPC: 0.669411 cumulative IPC: 0.816856 (Simulation time: 1 hr 17 min 33 sec) 
Heartbeat CPU 0 instructions: 95000000 cycles: 110148487 heartbeat IPC: 0.668537 cumulative IPC: 0.81473 (Simulation time: 1 hr 18 min 8 sec) 
Heartbeat CPU 0 instructions: 96000000 cycles: 111642440 heartbeat IPC: 0.669365 cumulative IPC: 0.812678 (Simulation time: 1 hr 18 min 41 sec) 
Heartbeat CPU 0 instructions: 97000001 cycles: 113137986 heartbeat IPC: 0.668653 cumulative IPC: 0.810671 (Simulation time: 1 hr 19 min 13 sec) 
Heartbeat CPU 0 instructions: 98000003 cycles: 114633347 heartbeat IPC: 0.668736 cumulative IPC: 0.80872 (Simulation time: 1 hr 19 min 45 sec) 
Heartbeat CPU 0 instructions: 99000000 cycles: 116122455 heartbeat IPC: 0.671541 cumulative IPC: 0.806868 (Simulation time: 1 hr 20 min 16 sec) 
Heartbeat CPU 0 instructions: 100000000 cycles: 117605851 heartbeat IPC: 0.674129 cumulative IPC: 0.805107 (Simulation time: 1 hr 20 min 45 sec) 
Heartbeat CPU 0 instructions: 101000000 cycles: 119089060 heartbeat IPC: 0.674214 cumulative IPC: 0.803393 (Simulation time: 1 hr 21 min 10 sec) 
Heartbeat CPU 0 instructions: 102000003 cycles: 120572642 heartbeat IPC: 0.674046 cumulative IPC: 0.80172 (Simulation time: 1 hr 21 min 35 sec) 
Heartbeat CPU 0 instructions: 103000003 cycles: 122068904 heartbeat IPC: 0.668332 cumulative IPC: 0.800004 (Simulation time: 1 hr 22 min 1 sec) 
Heartbeat CPU 0 instructions: 104000000 cycles: 123564042 heartbeat IPC: 0.668833 cumulative IPC: 0.798338 (Simulation time: 1 hr 22 min 24 sec) 
Heartbeat CPU 0 instructions: 105000000 cycles: 125058954 heartbeat IPC: 0.668936 cumulative IPC: 0.796716 (Simulation time: 1 hr 22 min 47 sec) 
Heartbeat CPU 0 instructions: 106000000 cycles: 126554018 heartbeat IPC: 0.668868 cumulative IPC: 0.795133 (Simulation time: 1 hr 23 min 12 sec) 
Heartbeat CPU 0 instructions: 107000000 cycles: 128050261 heartbeat IPC: 0.668341 cumulative IPC: 0.79358 (Simulation time: 1 hr 23 min 35 sec) 
Heartbeat CPU 0 instructions: 108000000 cycles: 129545910 heartbeat IPC: 0.668606 cumulative IPC: 0.79207 (Simulation time: 1 hr 23 min 58 sec) 
Heartbeat CPU 0 instructions: 109000003 cycles: 131028770 heartbeat IPC: 0.674375 cumulative IPC: 0.790676 (Simulation time: 1 hr 24 min 18 sec) 
Heartbeat CPU 0 instructions: 110000001 cycles: 132511978 heartbeat IPC: 0.674213 cumulative IPC: 0.789312 (Simulation time: 1 hr 24 min 35 sec) 
Finished CPU 0 instructions: 100000000 cycles: 126692549 cummulative IPC: 0.789312 (Simulation time: 1 hr 24 min 35 sec) 

ChampSim completed all CPUs

Region of Interest Statistics

CPU 0 cummulative IPC: 0.789312 instructions: 100000000 cycles: 126692549
LLC TOTAL     ACCESS:    1495373  HIT:     504024  MISS:     991349
LLC LOAD      ACCESS:      90498  HIT:      30962  MISS:      59536
LLC RFO       ACCESS:     219211  HIT:      51924  MISS:     167287
LLC PREFETCH  ACCESS:     749519  HIT:     160253  MISS:     589266
LLC WRITEBACK ACCESS:     436145  HIT:     260885  MISS:     175260
