
*** ChampSim Multicore Out-of-Order Simulator ***

Warmup Instructions: 10000000
Simulation Instructions: 100000000
Configuration: 2
Number of CPUs: 1
LLC sets: 2048
LLC ways: 16
Off-chip DRAM Channels: 1 Width: 64-bit Data Rate: 1600 MT/s

CPU 0 runs /datasets/cs240c-wi22-a00-public/data/Assignment2-gz/omnetpp_4B.trace.gz
CPU 0 L1D next line prefetcher
CPU 0 L2C IP-based stride prefetcher
Heartbeat CPU 0 instructions: 1000001 cycles: 566980 heartbeat IPC: 1.76373 cumulative IPC: 1.76373 (Simulation time: 0 hr 0 min 37 sec) 
Heartbeat CPU 0 instructions: 2000001 cycles: 1135436 heartbeat IPC: 1.75915 cumulative IPC: 1.76144 (Simulation time: 0 hr 1 min 12 sec) 
Heartbeat CPU 0 instructions: 3000001 cycles: 1722454 heartbeat IPC: 1.70353 cumulative IPC: 1.7417 (Simulation time: 0 hr 1 min 48 sec) 
Heartbeat CPU 0 instructions: 4000000 cycles: 2291720 heartbeat IPC: 1.75665 cumulative IPC: 1.74541 (Simulation time: 0 hr 2 min 22 sec) 
Heartbeat CPU 0 instructions: 5000000 cycles: 2865841 heartbeat IPC: 1.74179 cumulative IPC: 1.74469 (Simulation time: 0 hr 2 min 55 sec) 
Heartbeat CPU 0 instructions: 6000000 cycles: 3442018 heartbeat IPC: 1.73558 cumulative IPC: 1.74316 (Simulation time: 0 hr 3 min 29 sec) 
Heartbeat CPU 0 instructions: 7000000 cycles: 4011309 heartbeat IPC: 1.75657 cumulative IPC: 1.74507 (Simulation time: 0 hr 4 min 2 sec) 
Heartbeat CPU 0 instructions: 8000000 cycles: 4564799 heartbeat IPC: 1.80672 cumulative IPC: 1.75254 (Simulation time: 0 hr 4 min 35 sec) 
Heartbeat CPU 0 instructions: 9000001 cycles: 5146910 heartbeat IPC: 1.71789 cumulative IPC: 1.74862 (Simulation time: 0 hr 5 min 10 sec) 
Heartbeat CPU 0 instructions: 10000000 cycles: 5700845 heartbeat IPC: 1.80526 cumulative IPC: 1.75413 (Simulation time: 0 hr 5 min 44 sec) 

Warmup complete CPU 0 instructions: 10000003 cycles: 5700846 (Simulation time: 0 hr 5 min 44 sec) 

Heartbeat CPU 0 instructions: 11000000 cycles: 8887821 heartbeat IPC: 0.313777 cumulative IPC: 0.313776 (Simulation time: 0 hr 6 min 25 sec) 
Heartbeat CPU 0 instructions: 12000000 cycles: 10042364 heartbeat IPC: 0.866144 cumulative IPC: 0.460668 (Simulation time: 0 hr 6 min 57 sec) 
Heartbeat CPU 0 instructions: 13000003 cycles: 11187132 heartbeat IPC: 0.873542 cumulative IPC: 0.546818 (Simulation time: 0 hr 7 min 27 sec) 
Heartbeat CPU 0 instructions: 14000000 cycles: 12307398 heartbeat IPC: 0.892642 cumulative IPC: 0.605459 (Simulation time: 0 hr 7 min 56 sec) 
Heartbeat CPU 0 instructions: 15000000 cycles: 13446620 heartbeat IPC: 0.877792 cumulative IPC: 0.645513 (Simulation time: 0 hr 8 min 30 sec) 
Heartbeat CPU 0 instructions: 16000000 cycles: 16319418 heartbeat IPC: 0.348093 cumulative IPC: 0.565047 (Simulation time: 0 hr 9 min 14 sec) 
Heartbeat CPU 0 instructions: 17000003 cycles: 19200828 heartbeat IPC: 0.347053 cumulative IPC: 0.518519 (Simulation time: 0 hr 9 min 57 sec) 
Heartbeat CPU 0 instructions: 18000002 cycles: 22002665 heartbeat IPC: 0.356908 cumulative IPC: 0.490743 (Simulation time: 0 hr 10 min 41 sec) 
Heartbeat CPU 0 instructions: 19000002 cycles: 24832403 heartbeat IPC: 0.35339 cumulative IPC: 0.470427 (Simulation time: 0 hr 11 min 19 sec) 
Heartbeat CPU 0 instructions: 20000000 cycles: 28200390 heartbeat IPC: 0.296913 cumulative IPC: 0.444453 (Simulation time: 0 hr 11 min 59 sec) 
Heartbeat CPU 0 instructions: 21000000 cycles: 31556090 heartbeat IPC: 0.298 cumulative IPC: 0.425445 (Simulation time: 0 hr 12 min 38 sec) 
Heartbeat CPU 0 instructions: 22000001 cycles: 34786815 heartbeat IPC: 0.309528 cumulative IPC: 0.41257 (Simulation time: 0 hr 13 min 18 sec) 
Heartbeat CPU 0 instructions: 23000000 cycles: 37660274 heartbeat IPC: 0.348012 cumulative IPC: 0.406766 (Simulation time: 0 hr 13 min 58 sec) 
Heartbeat CPU 0 instructions: 24000000 cycles: 40467508 heartbeat IPC: 0.356223 cumulative IPC: 0.402685 (Simulation time: 0 hr 14 min 39 sec) 
Heartbeat CPU 0 instructions: 25000000 cycles: 43271386 heartbeat IPC: 0.356649 cumulative IPC: 0.399249 (Simulation time: 0 hr 15 min 19 sec) 
Heartbeat CPU 0 instructions: 26000002 cycles: 46059741 heartbeat IPC: 0.358635 cumulative IPC: 0.396443 (Simulation time: 0 hr 15 min 58 sec) 
Heartbeat CPU 0 instructions: 27000001 cycles: 48893502 heartbeat IPC: 0.352888 cumulative IPC: 0.393585 (Simulation time: 0 hr 16 min 38 sec) 
Heartbeat CPU 0 instructions: 28000000 cycles: 51678015 heartbeat IPC: 0.359129 cumulative IPC: 0.391499 (Simulation time: 0 hr 17 min 16 sec) 
Heartbeat CPU 0 instructions: 29000001 cycles: 54550225 heartbeat IPC: 0.348164 cumulative IPC: 0.388951 (Simulation time: 0 hr 17 min 55 sec) 
Heartbeat CPU 0 instructions: 30000000 cycles: 57348699 heartbeat IPC: 0.357337 cumulative IPC: 0.387238 (Simulation time: 0 hr 18 min 34 sec) 
Heartbeat CPU 0 instructions: 31000002 cycles: 60130847 heartbeat IPC: 0.359435 cumulative IPC: 0.385817 (Simulation time: 0 hr 19 min 14 sec) 
Heartbeat CPU 0 instructions: 32000000 cycles: 62965142 heartbeat IPC: 0.352821 cumulative IPC: 0.384183 (Simulation time: 0 hr 19 min 55 sec) 
Heartbeat CPU 0 instructions: 33000000 cycles: 66157876 heartbeat IPC: 0.313211 cumulative IPC: 0.380435 (Simulation time: 0 hr 20 min 34 sec) 
Heartbeat CPU 0 instructions: 34000001 cycles: 69508336 heartbeat IPC: 0.298467 cumulative IPC: 0.376131 (Simulation time: 0 hr 21 min 15 sec) 
Heartbeat CPU 0 instructions: 35000001 cycles: 72574669 heartbeat IPC: 0.326122 cumulative IPC: 0.373838 (Simulation time: 0 hr 21 min 57 sec) 
Heartbeat CPU 0 instructions: 36000000 cycles: 75855495 heartbeat IPC: 0.304801 cumulative IPC: 0.37061 (Simulation time: 0 hr 22 min 36 sec) 
Heartbeat CPU 0 instructions: 37000001 cycles: 78667471 heartbeat IPC: 0.355622 cumulative IPC: 0.370032 (Simulation time: 0 hr 23 min 13 sec) 
Heartbeat CPU 0 instructions: 38000001 cycles: 81875004 heartbeat IPC: 0.311766 cumulative IPC: 0.367579 (Simulation time: 0 hr 23 min 55 sec) 
Heartbeat CPU 0 instructions: 39000001 cycles: 84406942 heartbeat IPC: 0.394954 cumulative IPC: 0.368459 (Simulation time: 0 hr 24 min 29 sec) 
Heartbeat CPU 0 instructions: 40000000 cycles: 85528798 heartbeat IPC: 0.891379 cumulative IPC: 0.375808 (Simulation time: 0 hr 24 min 58 sec) 
Heartbeat CPU 0 instructions: 41000001 cycles: 86655058 heartbeat IPC: 0.887895 cumulative IPC: 0.382932 (Simulation time: 0 hr 25 min 27 sec) 
Heartbeat CPU 0 instructions: 42000001 cycles: 87789192 heartbeat IPC: 0.88173 cumulative IPC: 0.389824 (Simulation time: 0 hr 25 min 57 sec) 
Heartbeat CPU 0 instructions: 43000002 cycles: 89013167 heartbeat IPC: 0.817011 cumulative IPC: 0.3961 (Simulation time: 0 hr 26 min 29 sec) 
Heartbeat CPU 0 instructions: 44000000 cycles: 91911023 heartbeat IPC: 0.345082 cumulative IPC: 0.394385 (Simulation time: 0 hr 27 min 8 sec) 
Heartbeat CPU 0 instructions: 45000000 cycles: 94804676 heartbeat IPC: 0.345584 cumulative IPC: 0.3928 (Simulation time: 0 hr 27 min 45 sec) 
Heartbeat CPU 0 instructions: 46000000 cycles: 98180814 heartbeat IPC: 0.296196 cumulative IPC: 0.389273 (Simulation time: 0 hr 28 min 26 sec) 
Heartbeat CPU 0 instructions: 47000000 cycles: 101552268 heartbeat IPC: 0.296608 cumulative IPC: 0.386014 (Simulation time: 0 hr 29 min 16 sec) 
Heartbeat CPU 0 instructions: 48000000 cycles: 104739146 heartbeat IPC: 0.313787 cumulative IPC: 0.38369 (Simulation time: 0 hr 30 min 2 sec) 
Heartbeat CPU 0 instructions: 49000000 cycles: 107668332 heartbeat IPC: 0.341392 cumulative IPC: 0.382475 (Simulation time: 0 hr 30 min 49 sec) 
Heartbeat CPU 0 instructions: 50000001 cycles: 110479054 heartbeat IPC: 0.355781 cumulative IPC: 0.381759 (Simulation time: 0 hr 31 min 33 sec) 
Heartbeat CPU 0 instructions: 51000003 cycles: 113302525 heartbeat IPC: 0.354175 cumulative IPC: 0.381035 (Simulation time: 0 hr 32 min 17 sec) 
Heartbeat CPU 0 instructions: 52000000 cycles: 116111543 heartbeat IPC: 0.355995 cumulative IPC: 0.380398 (Simulation time: 0 hr 32 min 58 sec) 
Heartbeat CPU 0 instructions: 53000003 cycles: 118928607 heartbeat IPC: 0.354981 cumulative IPC: 0.379766 (Simulation time: 0 hr 33 min 42 sec) 
Heartbeat CPU 0 instructions: 54000001 cycles: 121723657 heartbeat IPC: 0.357775 cumulative IPC: 0.379236 (Simulation time: 0 hr 34 min 23 sec) 
Heartbeat CPU 0 instructions: 55000001 cycles: 124678558 heartbeat IPC: 0.338421 cumulative IPC: 0.378222 (Simulation time: 0 hr 35 min 11 sec) 
Heartbeat CPU 0 instructions: 56000000 cycles: 127493392 heartbeat IPC: 0.35526 cumulative IPC: 0.377691 (Simulation time: 0 hr 35 min 54 sec) 
Heartbeat CPU 0 instructions: 57000003 cycles: 130282302 heartbeat IPC: 0.358564 cumulative IPC: 0.377263 (Simulation time: 0 hr 36 min 36 sec) 
Heartbeat CPU 0 instructions: 58000001 cycles: 133290744 heartbeat IPC: 0.332397 cumulative IPC: 0.376205 (Simulation time: 0 hr 37 min 18 sec) 
Heartbeat CPU 0 instructions: 59000001 cycles: 136608160 heartbeat IPC: 0.301439 cumulative IPC: 0.374311 (Simulation time: 0 hr 38 min 1 sec) 
Heartbeat CPU 0 instructions: 60000000 cycles: 139620448 heartbeat IPC: 0.331973 cumulative IPC: 0.373358 (Simulation time: 0 hr 38 min 43 sec) 
Heartbeat CPU 0 instructions: 61000001 cycles: 142707932 heartbeat IPC: 0.323889 cumulative IPC: 0.372243 (Simulation time: 0 hr 39 min 32 sec) 
Heartbeat CPU 0 instructions: 62000000 cycles: 146059843 heartbeat IPC: 0.298337 cumulative IPC: 0.370479 (Simulation time: 0 hr 40 min 19 sec) 
Heartbeat CPU 0 instructions: 63000001 cycles: 148907895 heartbeat IPC: 0.351118 cumulative IPC: 0.370093 (Simulation time: 0 hr 41 min 4 sec) 
Heartbeat CPU 0 instructions: 64000000 cycles: 151734216 heartbeat IPC: 0.353817 cumulative IPC: 0.369778 (Simulation time: 0 hr 41 min 49 sec) 
Heartbeat CPU 0 instructions: 65000001 cycles: 154550885 heartbeat IPC: 0.35503 cumulative IPC: 0.369499 (Simulation time: 0 hr 42 min 34 sec) 
Heartbeat CPU 0 instructions: 66000002 cycles: 158734348 heartbeat IPC: 0.239037 cumulative IPC: 0.365933 (Simulation time: 0 hr 43 min 27 sec) 
Heartbeat CPU 0 instructions: 67000001 cycles: 160404042 heartbeat IPC: 0.598912 cumulative IPC: 0.368447 (Simulation time: 0 hr 44 min 6 sec) 
Heartbeat CPU 0 instructions: 68000000 cycles: 161527934 heartbeat IPC: 0.889764 cumulative IPC: 0.372207 (Simulation time: 0 hr 44 min 44 sec) 
Heartbeat CPU 0 instructions: 69000003 cycles: 162669969 heartbeat IPC: 0.875633 cumulative IPC: 0.37587 (Simulation time: 0 hr 45 min 20 sec) 
Heartbeat CPU 0 instructions: 70000000 cycles: 163790180 heartbeat IPC: 0.892686 cumulative IPC: 0.379532 (Simulation time: 0 hr 45 min 56 sec) 
Heartbeat CPU 0 instructions: 71000001 cycles: 164964763 heartbeat IPC: 0.851367 cumulative IPC: 0.383012 (Simulation time: 0 hr 46 min 30 sec) 
Heartbeat CPU 0 instructions: 72000000 cycles: 168321028 heartbeat IPC: 0.29795 cumulative IPC: 0.381256 (Simulation time: 0 hr 47 min 17 sec) 
Heartbeat CPU 0 instructions: 73000000 cycles: 171731075 heartbeat IPC: 0.293251 cumulative IPC: 0.379449 (Simulation time: 0 hr 47 min 59 sec) 
Heartbeat CPU 0 instructions: 74000001 cycles: 175092370 heartbeat IPC: 0.297505 cumulative IPC: 0.377823 (Simulation time: 0 hr 48 min 39 sec) 
Heartbeat CPU 0 instructions: 75000001 cycles: 178021044 heartbeat IPC: 0.341451 cumulative IPC: 0.377205 (Simulation time: 0 hr 49 min 21 sec) 
Heartbeat CPU 0 instructions: 76000000 cycles: 180824068 heartbeat IPC: 0.356757 cumulative IPC: 0.376877 (Simulation time: 0 hr 50 min 0 sec) 
Heartbeat CPU 0 instructions: 77000000 cycles: 183652156 heartbeat IPC: 0.353596 cumulative IPC: 0.376507 (Simulation time: 0 hr 50 min 37 sec) 
Heartbeat CPU 0 instructions: 78000001 cycles: 186480490 heartbeat IPC: 0.353565 cumulative IPC: 0.376149 (Simulation time: 0 hr 51 min 17 sec) 
Heartbeat CPU 0 instructions: 79000001 cycles: 189302929 heartbeat IPC: 0.354304 cumulative IPC: 0.375813 (Simulation time: 0 hr 51 min 54 sec) 
Heartbeat CPU 0 instructions: 80000000 cycles: 192104690 heartbeat IPC: 0.356918 cumulative IPC: 0.375529 (Simulation time: 0 hr 52 min 32 sec) 
Heartbeat CPU 0 instructions: 81000002 cycles: 194995874 heartbeat IPC: 0.34588 cumulative IPC: 0.375076 (Simulation time: 0 hr 53 min 11 sec) 
Heartbeat CPU 0 instructions: 82000001 cycles: 197809109 heartbeat IPC: 0.355462 cumulative IPC: 0.374789 (Simulation time: 0 hr 53 min 52 sec) 
Heartbeat CPU 0 instructions: 83000002 cycles: 200663004 heartbeat IPC: 0.350399 cumulative IPC: 0.374432 (Simulation time: 0 hr 54 min 32 sec) 
Heartbeat CPU 0 instructions: 84000000 cycles: 203539751 heartbeat IPC: 0.347614 cumulative IPC: 0.374042 (Simulation time: 0 hr 55 min 10 sec) 
Heartbeat CPU 0 instructions: 85000002 cycles: 206873685 heartbeat IPC: 0.299947 cumulative IPC: 0.372814 (Simulation time: 0 hr 55 min 49 sec) 
Heartbeat CPU 0 instructions: 86000002 cycles: 210209340 heartbeat IPC: 0.299791 cumulative IPC: 0.371623 (Simulation time: 0 hr 56 min 29 sec) 
Heartbeat CPU 0 instructions: 87000000 cycles: 213260472 heartbeat IPC: 0.327747 cumulative IPC: 0.370978 (Simulation time: 0 hr 57 min 11 sec) 
Heartbeat CPU 0 instructions: 88000000 cycles: 216287444 heartbeat IPC: 0.330363 cumulative IPC: 0.370394 (Simulation time: 0 hr 57 min 49 sec) 
Heartbeat CPU 0 instructions: 89000002 cycles: 219388874 heartbeat IPC: 0.322433 cumulative IPC: 0.369698 (Simulation time: 0 hr 58 min 29 sec) 
Heartbeat CPU 0 instructions: 90000001 cycles: 222194551 heartbeat IPC: 0.35642 cumulative IPC: 0.369526 (Simulation time: 0 hr 59 min 5 sec) 
Heartbeat CPU 0 instructions: 91000001 cycles: 225030059 heartbeat IPC: 0.35267 cumulative IPC: 0.369308 (Simulation time: 0 hr 59 min 41 sec) 
Heartbeat CPU 0 instructions: 92000000 cycles: 227963511 heartbeat IPC: 0.340895 cumulative IPC: 0.368933 (Simulation time: 1 hr 0 min 19 sec) 
Heartbeat CPU 0 instructions: 93000000 cycles: 230807172 heartbeat IPC: 0.351659 cumulative IPC: 0.368715 (Simulation time: 1 hr 0 min 56 sec) 
Heartbeat CPU 0 instructions: 94000000 cycles: 235363685 heartbeat IPC: 0.219466 cumulative IPC: 0.365754 (Simulation time: 1 hr 1 min 42 sec) 
Heartbeat CPU 0 instructions: 95000000 cycles: 236546756 heartbeat IPC: 0.845258 cumulative IPC: 0.368211 (Simulation time: 1 hr 2 min 12 sec) 
Heartbeat CPU 0 instructions: 96000000 cycles: 237689666 heartbeat IPC: 0.87496 cumulative IPC: 0.370708 (Simulation time: 1 hr 2 min 42 sec) 
Heartbeat CPU 0 instructions: 97000002 cycles: 238808343 heartbeat IPC: 0.893915 cumulative IPC: 0.373218 (Simulation time: 1 hr 3 min 11 sec) 
Heartbeat CPU 0 instructions: 98000001 cycles: 239950283 heartbeat IPC: 0.875702 cumulative IPC: 0.375668 (Simulation time: 1 hr 3 min 41 sec) 
Heartbeat CPU 0 instructions: 99000002 cycles: 241835718 heartbeat IPC: 0.530382 cumulative IPC: 0.376903 (Simulation time: 1 hr 4 min 15 sec) 
Heartbeat CPU 0 instructions: 100000000 cycles: 245260350 heartbeat IPC: 0.292002 cumulative IPC: 0.37569 (Simulation time: 1 hr 4 min 52 sec) 
Heartbeat CPU 0 instructions: 101000002 cycles: 248377113 heartbeat IPC: 0.320846 cumulative IPC: 0.374985 (Simulation time: 1 hr 5 min 32 sec) 
Heartbeat CPU 0 instructions: 102000001 cycles: 251387350 heartbeat IPC: 0.332199 cumulative IPC: 0.374461 (Simulation time: 1 hr 6 min 8 sec) 
Heartbeat CPU 0 instructions: 103000000 cycles: 254207935 heartbeat IPC: 0.354536 cumulative IPC: 0.374235 (Simulation time: 1 hr 6 min 44 sec) 
Heartbeat CPU 0 instructions: 104000000 cycles: 257049778 heartbeat IPC: 0.351884 cumulative IPC: 0.373982 (Simulation time: 1 hr 7 min 20 sec) 
Heartbeat CPU 0 instructions: 105000001 cycles: 259867445 heartbeat IPC: 0.354904 cumulative IPC: 0.373771 (Simulation time: 1 hr 7 min 53 sec) 
Heartbeat CPU 0 instructions: 106000000 cycles: 262813450 heartbeat IPC: 0.339442 cumulative IPC: 0.373377 (Simulation time: 1 hr 8 min 28 sec) 
Heartbeat CPU 0 instructions: 107000002 cycles: 265666258 heartbeat IPC: 0.350533 cumulative IPC: 0.373127 (Simulation time: 1 hr 9 min 1 sec) 
Heartbeat CPU 0 instructions: 108000000 cycles: 268494420 heartbeat IPC: 0.353586 cumulative IPC: 0.372916 (Simulation time: 1 hr 9 min 35 sec) 
Heartbeat CPU 0 instructions: 109000002 cycles: 271310205 heartbeat IPC: 0.355141 cumulative IPC: 0.372728 (Simulation time: 1 hr 10 min 7 sec) 
Heartbeat CPU 0 instructions: 110000001 cycles: 274175861 heartbeat IPC: 0.34896 cumulative IPC: 0.372474 (Simulation time: 1 hr 10 min 38 sec) 
Finished CPU 0 instructions: 100000001 cycles: 268475017 cummulative IPC: 0.372474 (Simulation time: 1 hr 10 min 38 sec) 

ChampSim completed all CPUs

Region of Interest Statistics

CPU 0 cummulative IPC: 0.372474 instructions: 100000001 cycles: 268475017
LLC TOTAL     ACCESS:    4666894  HIT:    2204693  MISS:    2462201
LLC LOAD      ACCESS:    2187231  HIT:    1993774  MISS:     193457
LLC RFO       ACCESS:      24959  HIT:      10731  MISS:      14228
LLC PREFETCH  ACCESS:    2374335  HIT:     168321  MISS:    2206014
LLC WRITEBACK ACCESS:      80369  HIT:      31867  MISS:      48502
