Initialize SIGNATURE TABLE
ST_SET: 1
ST_WAY: 256
ST_TAG_BIT: 16
ST_TAG_MASK: ffff

Initialize PATTERN TABLE
PT_SET: 512
PT_WAY: 4
SIG_DELTA_BIT: 7
C_SIG_BIT: 4
C_DELTA_BIT: 4

Initialize PREFETCH FILTER
FILTER_SET: 1024

*** ChampSim Multicore Out-of-Order Simulator ***

Warmup Instructions: 50000000
Simulation Instructions: 50000000
Number of CPUs: 1
LLC sets: 2048
LLC ways: 16
Off-chip DRAM Size: 4096 MB Channels: 1 Width: 64-bit Data Rate: 3200 MT/s

CPU 0 runs /Users/gandhardeshpande/Desktop/CSE240C/HW1/ChampSim/ipc1_public/client_003.champsimtrace.xz
CPU 0 L1I next line prefetcher
Running FNL-MMA for L1I
CPU 0 L1D next line prefetcher
Heartbeat CPU 0 instructions: 10000000 cycles: 3478115 heartbeat IPC: 2.87512 cumulative IPC: 2.87512 (Simulation time: 0 hr 0 min 14 sec) 
Heartbeat CPU 0 instructions: 20000002 cycles: 6932187 heartbeat IPC: 2.89513 cumulative IPC: 2.88509 (Simulation time: 0 hr 0 min 28 sec) 
Heartbeat CPU 0 instructions: 30000003 cycles: 10492993 heartbeat IPC: 2.80835 cumulative IPC: 2.85905 (Simulation time: 0 hr 0 min 43 sec) 
Heartbeat CPU 0 instructions: 40000001 cycles: 14109353 heartbeat IPC: 2.76521 cumulative IPC: 2.835 (Simulation time: 0 hr 0 min 57 sec) 
Heartbeat CPU 0 instructions: 50000003 cycles: 17654439 heartbeat IPC: 2.82081 cumulative IPC: 2.83215 (Simulation time: 0 hr 1 min 12 sec) 

Warmup complete CPU 0 instructions: 50000003 cycles: 17654439 (Simulation time: 0 hr 1 min 12 sec) 

Heartbeat CPU 0 instructions: 60000002 cycles: 23920261 heartbeat IPC: 1.59596 cumulative IPC: 1.59596 (Simulation time: 0 hr 1 min 24 sec) 
Heartbeat CPU 0 instructions: 70000001 cycles: 29985702 heartbeat IPC: 1.64868 cumulative IPC: 1.62189 (Simulation time: 0 hr 1 min 36 sec) 
Heartbeat CPU 0 instructions: 80000001 cycles: 36815225 heartbeat IPC: 1.46423 cumulative IPC: 1.5657 (Simulation time: 0 hr 1 min 48 sec) 
Heartbeat CPU 0 instructions: 90000000 cycles: 45832817 heartbeat IPC: 1.10894 cumulative IPC: 1.41953 (Simulation time: 0 hr 1 min 57 sec) 
Heartbeat CPU 0 instructions: 100000003 cycles: 56646938 heartbeat IPC: 0.924717 cumulative IPC: 1.2823 (Simulation time: 0 hr 2 min 9 sec) 
Finished CPU 0 instructions: 50000000 cycles: 38992499 cumulative IPC: 1.2823 (Simulation time: 0 hr 2 min 9 sec) 

ChampSim completed all CPUs

Region of Interest Statistics

CPU 0 cumulative IPC: 1.2823 instructions: 50000000 cycles: 38992499
L1D TOTAL     ACCESS:   17651454  HIT:   17155471  MISS:     495983
L1D LOAD      ACCESS:    6045658  HIT:    5918792  MISS:     126866
L1D RFO       ACCESS:    5951188  HIT:    5716846  MISS:     234342
L1D PREFETCH  ACCESS:    5654608  HIT:    5519833  MISS:     134775
L1D WRITEBACK ACCESS:          0  HIT:          0  MISS:          0
L1D PREFETCH  REQUESTED:    6087036  ISSUED:    5946096  USEFUL:      66824  USELESS:      67999
L1D AVERAGE MISS LATENCY: 121.22 cycles
L1I TOTAL     ACCESS:   11495566  HIT:   10693537  MISS:     802029
L1I LOAD      ACCESS:    9447402  HIT:    9335450  MISS:     111952
L1I RFO       ACCESS:          0  HIT:          0  MISS:          0
L1I PREFETCH  ACCESS:    2048164  HIT:    1358087  MISS:     690077
L1I WRITEBACK ACCESS:          0  HIT:          0  MISS:          0
L1I PREFETCH  REQUESTED:    2119670  ISSUED:    2119633  USEFUL:     437594  USELESS:     252507
L1I AVERAGE MISS LATENCY: 20.4694 cycles
L2C TOTAL     ACCESS:    1914635  HIT:    1517099  MISS:     397536
L2C LOAD      ACCESS:     188766  HIT:     145181  MISS:      43585
L2C RFO       ACCESS:     232294  HIT:      25660  MISS:     206634
L2C PREFETCH  ACCESS:    1224274  HIT:    1078268  MISS:     146006
L2C WRITEBACK ACCESS:     269301  HIT:     267990  MISS:       1311
L2C PREFETCH  REQUESTED:    1414089  ISSUED:    1413387  USEFUL:      13051  USELESS:     133533
L2C AVERAGE MISS LATENCY: 165.873 cycles
LLC TOTAL     ACCESS:    1011619  HIT:     723830  MISS:     287789
LLC LOAD      ACCESS:      43492  HIT:      30238  MISS:      13254
LLC RFO       ACCESS:     206625  HIT:      34959  MISS:     171666
LLC PREFETCH  ACCESS:     537038  HIT:     434595  MISS:     102443
LLC WRITEBACK ACCESS:     224464  HIT:     224038  MISS:        426
LLC PREFETCH  REQUESTED:          0  ISSUED:          0  USEFUL:      10768  USELESS:      92445
LLC AVERAGE MISS LATENCY: 228.018 cycles
Major fault: 0 Minor fault: 5042
I-Shadow cache 408 bytes
Touched + WorthPF tables 49152 bytes 
MMA filter 174 bytes 
FNL filter 272 bytes 
TOTAL PREFETCHER STORAGE SIZE: 195414 bytes
CPU 0 L1I next line prefetcher final stats
CPU 0 L1D next line prefetcher final stats

DRAM Statistics
 CHANNEL 0
 RQ ROW_BUFFER_HIT:     101200  ROW_BUFFER_MISS:     186161
 DBUS_CONGESTED:     259680
 WQ ROW_BUFFER_HIT:      59905  ROW_BUFFER_MISS:     119262  FULL:          0

 AVG_CONGESTED_CYCLE: 6

CPU 0 Branch Prediction Accuracy: 98.6631% MPKI: 2.66884 Average ROB Occupancy at Mispredict: 76.766

Branch types
NOT_BRANCH: 40018780 80.0376%
BRANCH_DIRECT_JUMP: 370861 0.741722%
BRANCH_INDIRECT: 83253 0.166506%
BRANCH_CONDITIONAL: 7877436 15.7549%
BRANCH_DIRECT_CALL: 722316 1.44463%
BRANCH_INDIRECT_CALL: 101901 0.203802%
BRANCH_RETURN: 825355 1.65071%
BRANCH_OTHER: 0 0%

