Initialize SIGNATURE TABLE
ST_SET: 1
ST_WAY: 256
ST_TAG_BIT: 16
ST_TAG_MASK: ffff

Initialize PATTERN TABLE
PT_SET: 512
PT_WAY: 4
SIG_DELTA_BIT: 7
C_SIG_BIT: 4
C_DELTA_BIT: 4

Initialize PREFETCH FILTER
FILTER_SET: 1024

*** ChampSim Multicore Out-of-Order Simulator ***

Warmup Instructions: 50000000
Simulation Instructions: 50000000
Number of CPUs: 1
LLC sets: 2048
LLC ways: 16
Off-chip DRAM Size: 4096 MB Channels: 1 Width: 64-bit Data Rate: 3200 MT/s

CPU 0 runs /Users/gandhardeshpande/Desktop/CSE240C/HW1/ChampSim/ipc1_public/spec_perlbench_001.champsimtrace.xz
CPU 0 L1I next line prefetcher
Running FNL-MMA for L1I
CPU 0 L1D next line prefetcher
Heartbeat CPU 0 instructions: 10000000 cycles: 3275775 heartbeat IPC: 3.05271 cumulative IPC: 3.05271 (Simulation time: 0 hr 0 min 13 sec) 
Heartbeat CPU 0 instructions: 20000000 cycles: 6540300 heartbeat IPC: 3.06323 cumulative IPC: 3.05796 (Simulation time: 0 hr 0 min 26 sec) 
Heartbeat CPU 0 instructions: 30000002 cycles: 9856652 heartbeat IPC: 3.01536 cumulative IPC: 3.04363 (Simulation time: 0 hr 0 min 40 sec) 
Heartbeat CPU 0 instructions: 40000002 cycles: 13112034 heartbeat IPC: 3.07184 cumulative IPC: 3.05063 (Simulation time: 0 hr 0 min 53 sec) 
Heartbeat CPU 0 instructions: 50000001 cycles: 16385858 heartbeat IPC: 3.05453 cumulative IPC: 3.05141 (Simulation time: 0 hr 1 min 6 sec) 

Warmup complete CPU 0 instructions: 50000001 cycles: 16385858 (Simulation time: 0 hr 1 min 6 sec) 

Heartbeat CPU 0 instructions: 60000001 cycles: 24664481 heartbeat IPC: 1.20793 cumulative IPC: 1.20793 (Simulation time: 0 hr 1 min 18 sec) 
Heartbeat CPU 0 instructions: 70000000 cycles: 32763399 heartbeat IPC: 1.23473 cumulative IPC: 1.22118 (Simulation time: 0 hr 1 min 30 sec) 
Heartbeat CPU 0 instructions: 80000000 cycles: 41147370 heartbeat IPC: 1.19275 cumulative IPC: 1.21156 (Simulation time: 0 hr 1 min 42 sec) 
Heartbeat CPU 0 instructions: 90000000 cycles: 46871773 heartbeat IPC: 1.74691 cumulative IPC: 1.31208 (Simulation time: 0 hr 1 min 52 sec) 
Heartbeat CPU 0 instructions: 100000002 cycles: 52741380 heartbeat IPC: 1.70369 cumulative IPC: 1.37531 (Simulation time: 0 hr 2 min 1 sec) 
Finished CPU 0 instructions: 50000001 cycles: 36355522 cumulative IPC: 1.37531 (Simulation time: 0 hr 2 min 1 sec) 

ChampSim completed all CPUs

Region of Interest Statistics

CPU 0 cumulative IPC: 1.37531 instructions: 50000001 cycles: 36355522
L1D TOTAL     ACCESS:   20691773  HIT:   20276681  MISS:     415092
L1D LOAD      ACCESS:    7175390  HIT:    6961696  MISS:     213694
L1D RFO       ACCESS:    6542312  HIT:    6523801  MISS:      18511
L1D PREFETCH  ACCESS:    6974071  HIT:    6791184  MISS:     182887
L1D WRITEBACK ACCESS:          0  HIT:          0  MISS:          0
L1D PREFETCH  REQUESTED:    7191100  ISSUED:    7074618  USEFUL:      55203  USELESS:     127679
L1D AVERAGE MISS LATENCY: 57.749 cycles
L1I TOTAL     ACCESS:   10913448  HIT:   10212965  MISS:     700483
L1I LOAD      ACCESS:    9152523  HIT:    9079761  MISS:      72762
L1I RFO       ACCESS:          0  HIT:          0  MISS:          0
L1I PREFETCH  ACCESS:    1760925  HIT:    1133204  MISS:     627721
L1I WRITEBACK ACCESS:          0  HIT:          0  MISS:          0
L1I PREFETCH  REQUESTED:    1816836  ISSUED:    1816836  USEFUL:     386820  USELESS:     240891
L1I AVERAGE MISS LATENCY: 17.2587 cycles
L2C TOTAL     ACCESS:    1540818  HIT:    1371165  MISS:     169653
L2C LOAD      ACCESS:     270072  HIT:     189024  MISS:      81048
L2C RFO       ACCESS:      18274  HIT:      12817  MISS:       5457
L2C PREFETCH  ACCESS:    1173519  HIT:    1090745  MISS:      82774
L2C WRITEBACK ACCESS:      78953  HIT:      78579  MISS:        374
L2C PREFETCH  REQUESTED:    1207038  ISSUED:    1207022  USEFUL:       6553  USELESS:      76204
L2C AVERAGE MISS LATENCY: 117.542 cycles
LLC TOTAL     ACCESS:     459591  HIT:     313995  MISS:     145596
LLC LOAD      ACCESS:      81047  HIT:      33048  MISS:      47999
LLC RFO       ACCESS:       5457  HIT:       2464  MISS:       2993
LLC PREFETCH  ACCESS:     347523  HIT:     253451  MISS:      94072
LLC WRITEBACK ACCESS:      25564  HIT:      25032  MISS:        532
LLC PREFETCH  REQUESTED:          0  ISSUED:          0  USEFUL:      15491  USELESS:      78725
LLC AVERAGE MISS LATENCY: 160.053 cycles
Major fault: 0 Minor fault: 6364
I-Shadow cache 408 bytes
Touched + WorthPF tables 49152 bytes 
MMA filter 174 bytes 
FNL filter 272 bytes 
TOTAL PREFETCHER STORAGE SIZE: 195414 bytes
CPU 0 L1I next line prefetcher final stats
CPU 0 L1D next line prefetcher final stats

DRAM Statistics
 CHANNEL 0
 RQ ROW_BUFFER_HIT:      32895  ROW_BUFFER_MISS:     112166
 DBUS_CONGESTED:      61169
 WQ ROW_BUFFER_HIT:       4080  ROW_BUFFER_MISS:      13412  FULL:          0

 AVG_CONGESTED_CYCLE: 4

CPU 0 Branch Prediction Accuracy: 98.7418% MPKI: 2.47758 Average ROB Occupancy at Mispredict: 78.7614

Branch types
NOT_BRANCH: 40154100 80.3082%
BRANCH_DIRECT_JUMP: 817094 1.63419%
BRANCH_INDIRECT: 303787 0.607574%
BRANCH_CONDITIONAL: 7492103 14.9842%
BRANCH_DIRECT_CALL: 471777 0.943554%
BRANCH_INDIRECT_CALL: 144546 0.289092%
BRANCH_RETURN: 616324 1.23265%
BRANCH_OTHER: 0 0%

