Initialize SIGNATURE TABLE
ST_SET: 1
ST_WAY: 256
ST_TAG_BIT: 16
ST_TAG_MASK: ffff

Initialize PATTERN TABLE
PT_SET: 512
PT_WAY: 4
SIG_DELTA_BIT: 7
C_SIG_BIT: 4
C_DELTA_BIT: 4

Initialize PREFETCH FILTER
FILTER_SET: 1024

*** ChampSim Multicore Out-of-Order Simulator ***

Warmup Instructions: 50000000
Simulation Instructions: 50000000
Number of CPUs: 1
LLC sets: 2048
LLC ways: 16
Off-chip DRAM Size: 4096 MB Channels: 1 Width: 64-bit Data Rate: 3200 MT/s

CPU 0 runs /Users/gandhardeshpande/Desktop/CSE240C/HW1/ChampSim/ipc1_public/spec_gcc_003.champsimtrace.xz
CPU 0 L1I next line prefetcher
Running FNL-MMA for L1I
CPU 0 L1D next line prefetcher
Heartbeat CPU 0 instructions: 10000001 cycles: 3481119 heartbeat IPC: 2.87264 cumulative IPC: 2.87264 (Simulation time: 0 hr 0 min 10 sec) 
Heartbeat CPU 0 instructions: 20000000 cycles: 6948238 heartbeat IPC: 2.88424 cumulative IPC: 2.87843 (Simulation time: 0 hr 0 min 20 sec) 
Heartbeat CPU 0 instructions: 30000002 cycles: 10393580 heartbeat IPC: 2.90247 cumulative IPC: 2.8864 (Simulation time: 0 hr 0 min 30 sec) 
Heartbeat CPU 0 instructions: 40000000 cycles: 13860616 heartbeat IPC: 2.88431 cumulative IPC: 2.88587 (Simulation time: 0 hr 0 min 40 sec) 
Heartbeat CPU 0 instructions: 50000001 cycles: 17169531 heartbeat IPC: 3.02214 cumulative IPC: 2.91214 (Simulation time: 0 hr 0 min 50 sec) 

Warmup complete CPU 0 instructions: 50000001 cycles: 17169531 (Simulation time: 0 hr 0 min 50 sec) 

Heartbeat CPU 0 instructions: 60000000 cycles: 56587956 heartbeat IPC: 0.253688 cumulative IPC: 0.253688 (Simulation time: 0 hr 1 min 17 sec) 
Heartbeat CPU 0 instructions: 70000000 cycles: 98298767 heartbeat IPC: 0.239746 cumulative IPC: 0.24652 (Simulation time: 0 hr 1 min 44 sec) 
Heartbeat CPU 0 instructions: 80000003 cycles: 141081262 heartbeat IPC: 0.233741 cumulative IPC: 0.242108 (Simulation time: 0 hr 2 min 13 sec) 
Heartbeat CPU 0 instructions: 90000002 cycles: 177152340 heartbeat IPC: 0.27723 cumulative IPC: 0.250027 (Simulation time: 0 hr 2 min 38 sec) 
Heartbeat CPU 0 instructions: 100000000 cycles: 222640432 heartbeat IPC: 0.219838 cumulative IPC: 0.243343 (Simulation time: 0 hr 3 min 7 sec) 
Finished CPU 0 instructions: 50000000 cycles: 205470902 cumulative IPC: 0.243343 (Simulation time: 0 hr 3 min 7 sec) 

ChampSim completed all CPUs

Region of Interest Statistics

CPU 0 cumulative IPC: 0.243343 instructions: 50000000 cycles: 205470902
L1D TOTAL     ACCESS:   16844575  HIT:   11120316  MISS:    5724259
L1D LOAD      ACCESS:    4563306  HIT:    4180172  MISS:     383134
L1D RFO       ACCESS:    8206258  HIT:    3154642  MISS:    5051616
L1D PREFETCH  ACCESS:    4075011  HIT:    3785502  MISS:     289509
L1D WRITEBACK ACCESS:          0  HIT:          0  MISS:          0
L1D PREFETCH  REQUESTED:    4580769  ISSUED:    4521277  USEFUL:     152115  USELESS:     137574
L1D AVERAGE MISS LATENCY: 490.031 cycles
L1I TOTAL     ACCESS:   13608827  HIT:   12280140  MISS:    1328687
L1I LOAD      ACCESS:   11275844  HIT:   11174768  MISS:     101076
L1I RFO       ACCESS:          0  HIT:          0  MISS:          0
L1I PREFETCH  ACCESS:    2332983  HIT:    1105372  MISS:    1227611
L1I WRITEBACK ACCESS:          0  HIT:          0  MISS:          0
L1I PREFETCH  REQUESTED:    2497729  ISSUED:    2489996  USEFUL:     762340  USELESS:     465177
L1I AVERAGE MISS LATENCY: 52.6553 cycles
L2C TOTAL     ACCESS:   12515379  HIT:    6438912  MISS:    6076467
L2C LOAD      ACCESS:     257996  HIT:      82536  MISS:     175460
L2C RFO       ACCESS:    5049812  HIT:       6461  MISS:    5043351
L2C PREFETCH  ACCESS:    2049698  HIT:    1192226  MISS:     857472
L2C WRITEBACK ACCESS:    5157873  HIT:    5157689  MISS:        184
L2C PREFETCH  REQUESTED:    2430242  ISSUED:    2429732  USEFUL:      33136  USELESS:     821494
L2C AVERAGE MISS LATENCY: 459.952 cycles
LLC TOTAL     ACCESS:   12035208  HIT:    7425962  MISS:    4609246
LLC LOAD      ACCESS:     175415  HIT:     132125  MISS:      43290
LLC RFO       ACCESS:    5043351  HIT:     748084  MISS:    4295267
LLC PREFETCH  ACCESS:    1682709  HIT:    1412020  MISS:     270689
LLC WRITEBACK ACCESS:    5133733  HIT:    5133733  MISS:          0
LLC PREFETCH  REQUESTED:          0  ISSUED:          0  USEFUL:      12593  USELESS:     258180
LLC AVERAGE MISS LATENCY: 574.643 cycles
Major fault: 0 Minor fault: 2817
I-Shadow cache 408 bytes
Touched + WorthPF tables 49152 bytes 
MMA filter 174 bytes 
FNL filter 272 bytes 
TOTAL PREFETCHER STORAGE SIZE: 195414 bytes
CPU 0 L1I next line prefetcher final stats
CPU 0 L1D next line prefetcher final stats

DRAM Statistics
 CHANNEL 0
 RQ ROW_BUFFER_HIT:    1390883  ROW_BUFFER_MISS:    3216641
 DBUS_CONGESTED:    7945665
 WQ ROW_BUFFER_HIT:    1148542  ROW_BUFFER_MISS:    3175631  FULL:       1395

 AVG_CONGESTED_CYCLE: 6

CPU 0 Branch Prediction Accuracy: 99.665% MPKI: 0.78342 Average ROB Occupancy at Mispredict: 120.758

Branch types
NOT_BRANCH: 38305856 76.6117%
BRANCH_DIRECT_JUMP: 384281 0.768562%
BRANCH_INDIRECT: 71949 0.143898%
BRANCH_CONDITIONAL: 9879825 19.7597%
BRANCH_DIRECT_CALL: 650586 1.30117%
BRANCH_INDIRECT_CALL: 28456 0.056912%
BRANCH_RETURN: 679046 1.35809%
BRANCH_OTHER: 0 0%

