Initialize SIGNATURE TABLE
ST_SET: 1
ST_WAY: 256
ST_TAG_BIT: 16
ST_TAG_MASK: ffff

Initialize PATTERN TABLE
PT_SET: 512
PT_WAY: 4
SIG_DELTA_BIT: 7
C_SIG_BIT: 4
C_DELTA_BIT: 4

Initialize PREFETCH FILTER
FILTER_SET: 1024

*** ChampSim Multicore Out-of-Order Simulator ***

Warmup Instructions: 50000000
Simulation Instructions: 50000000
Number of CPUs: 1
LLC sets: 2048
LLC ways: 16
Off-chip DRAM Size: 4096 MB Channels: 1 Width: 64-bit Data Rate: 3200 MT/s

CPU 0 runs /Users/gandhardeshpande/Desktop/CSE240C/HW1/ChampSim/ipc1_public/client_002.champsimtrace.xz
L1I Barca has been initializedCPU 0 L1D next line prefetcher
Heartbeat CPU 0 instructions: 10000000 cycles: 3405076 heartbeat IPC: 2.93679 cumulative IPC: 2.93679 (Simulation time: 0 hr 0 min 21 sec) 
Heartbeat CPU 0 instructions: 20000002 cycles: 6860833 heartbeat IPC: 2.89372 cumulative IPC: 2.9151 (Simulation time: 0 hr 0 min 42 sec) 
Heartbeat CPU 0 instructions: 30000001 cycles: 10293646 heartbeat IPC: 2.91306 cumulative IPC: 2.91442 (Simulation time: 0 hr 1 min 3 sec) 
Heartbeat CPU 0 instructions: 40000002 cycles: 13726421 heartbeat IPC: 2.9131 cumulative IPC: 2.91409 (Simulation time: 0 hr 1 min 24 sec) 
Heartbeat CPU 0 instructions: 50000002 cycles: 17167293 heartbeat IPC: 2.90624 cumulative IPC: 2.91252 (Simulation time: 0 hr 1 min 45 sec) 

Warmup complete CPU 0 instructions: 50000002 cycles: 17167293 (Simulation time: 0 hr 1 min 45 sec) 

Heartbeat CPU 0 instructions: 60000002 cycles: 23195738 heartbeat IPC: 1.6588 cumulative IPC: 1.6588 (Simulation time: 0 hr 2 min 5 sec) 
Heartbeat CPU 0 instructions: 70000001 cycles: 29300095 heartbeat IPC: 1.63817 cumulative IPC: 1.64842 (Simulation time: 0 hr 2 min 25 sec) 
Heartbeat CPU 0 instructions: 80000003 cycles: 35271285 heartbeat IPC: 1.67471 cumulative IPC: 1.65709 (Simulation time: 0 hr 2 min 46 sec) 
Heartbeat CPU 0 instructions: 90000000 cycles: 41844023 heartbeat IPC: 1.52144 cumulative IPC: 1.62096 (Simulation time: 0 hr 3 min 6 sec) 
Heartbeat CPU 0 instructions: 100000003 cycles: 47876861 heartbeat IPC: 1.6576 cumulative IPC: 1.62816 (Simulation time: 0 hr 3 min 26 sec) 
Finished CPU 0 instructions: 50000001 cycles: 30709568 cumulative IPC: 1.62816 (Simulation time: 0 hr 3 min 26 sec) 

ChampSim completed all CPUs

Region of Interest Statistics

CPU 0 cumulative IPC: 1.62816 instructions: 50000001 cycles: 30709568
L1D TOTAL     ACCESS:   19142304  HIT:   18803018  MISS:     339286
L1D LOAD      ACCESS:    6492970  HIT:    6376245  MISS:     116725
L1D RFO       ACCESS:    6419444  HIT:    6329508  MISS:      89936
L1D PREFETCH  ACCESS:    6229890  HIT:    6097265  MISS:     132625
L1D WRITEBACK ACCESS:          0  HIT:          0  MISS:          0
L1D PREFETCH  REQUESTED:    6503086  ISSUED:    6300579  USEFUL:      53820  USELESS:      78948
L1D AVERAGE MISS LATENCY: 49.3375 cycles
L1I TOTAL     ACCESS:   10831289  HIT:    9772497  MISS:    1058792
L1I LOAD      ACCESS:    9529082  HIT:    9418382  MISS:     110700
L1I RFO       ACCESS:          0  HIT:          0  MISS:          0
L1I PREFETCH  ACCESS:    1302207  HIT:     354115  MISS:     948092
L1I WRITEBACK ACCESS:          0  HIT:          0  MISS:          0
L1I PREFETCH  REQUESTED:    1466616  ISSUED:    1466616  USEFUL:     600172  USELESS:     347885
L1I AVERAGE MISS LATENCY: 16.6744 cycles
L2C TOTAL     ACCESS:    1879936  HIT:    1639665  MISS:     240271
L2C LOAD      ACCESS:     170821  HIT:     108770  MISS:      62051
L2C RFO       ACCESS:      88826  HIT:      23396  MISS:      65430
L2C PREFETCH  ACCESS:    1494788  HIT:    1382524  MISS:     112264
L2C WRITEBACK ACCESS:     125501  HIT:     124975  MISS:        526
L2C PREFETCH  REQUESTED:     807935  ISSUED:     807748  USEFUL:       9259  USELESS:     102466
L2C AVERAGE MISS LATENCY: 63.8725 cycles
LLC TOTAL     ACCESS:     527421  HIT:     465074  MISS:      62347
LLC LOAD      ACCESS:      62047  HIT:      55648  MISS:       6399
LLC RFO       ACCESS:      65429  HIT:      35521  MISS:      29908
LLC PREFETCH  ACCESS:     316048  HIT:     290291  MISS:      25757
LLC WRITEBACK ACCESS:      83897  HIT:      83614  MISS:        283
LLC PREFETCH  REQUESTED:          0  ISSUED:          0  USEFUL:       5408  USELESS:      19139
LLC AVERAGE MISS LATENCY: 175.332 cycles
Major fault: 0 Minor fault: 3091
CPU 0 L1D next line prefetcher final stats

DRAM Statistics
 CHANNEL 0
 RQ ROW_BUFFER_HIT:      21975  ROW_BUFFER_MISS:      40089
 DBUS_CONGESTED:      42880
 WQ ROW_BUFFER_HIT:       9071  ROW_BUFFER_MISS:      28174  FULL:          0

 AVG_CONGESTED_CYCLE: 6

CPU 0 Branch Prediction Accuracy: 99.2117% MPKI: 1.49752 Average ROB Occupancy at Mispredict: 112.85

Branch types
NOT_BRANCH: 40501616 81.0032%
BRANCH_DIRECT_JUMP: 517397 1.03479%
BRANCH_INDIRECT: 112348 0.224696%
BRANCH_CONDITIONAL: 6698737 13.3975%
BRANCH_DIRECT_CALL: 960974 1.92195%
BRANCH_INDIRECT_CALL: 123707 0.247414%
BRANCH_RETURN: 1084929 2.16986%
BRANCH_OTHER: 0 0%

