Initialize SIGNATURE TABLE
ST_SET: 1
ST_WAY: 256
ST_TAG_BIT: 16
ST_TAG_MASK: ffff

Initialize PATTERN TABLE
PT_SET: 512
PT_WAY: 4
SIG_DELTA_BIT: 7
C_SIG_BIT: 4
C_DELTA_BIT: 4

Initialize PREFETCH FILTER
FILTER_SET: 1024

*** ChampSim Multicore Out-of-Order Simulator ***

Warmup Instructions: 50000000
Simulation Instructions: 50000000
Number of CPUs: 1
LLC sets: 2048
LLC ways: 16
Off-chip DRAM Size: 4096 MB Channels: 1 Width: 64-bit Data Rate: 3200 MT/s

CPU 0 runs /Users/gandhardeshpande/Desktop/CSE240C/HW1/ChampSim/ipc1_public/server_009.champsimtrace.xz
L1I Barca has been initializedCPU 0 L1D next line prefetcher
Heartbeat CPU 0 instructions: 10000003 cycles: 3198727 heartbeat IPC: 3.12624 cumulative IPC: 3.12624 (Simulation time: 0 hr 0 min 17 sec) 
Heartbeat CPU 0 instructions: 20000001 cycles: 6389686 heartbeat IPC: 3.13385 cumulative IPC: 3.13004 (Simulation time: 0 hr 0 min 34 sec) 
Heartbeat CPU 0 instructions: 30000002 cycles: 9595603 heartbeat IPC: 3.11923 cumulative IPC: 3.12643 (Simulation time: 0 hr 0 min 52 sec) 
Heartbeat CPU 0 instructions: 40000003 cycles: 12798293 heartbeat IPC: 3.12238 cumulative IPC: 3.12542 (Simulation time: 0 hr 1 min 9 sec) 
Heartbeat CPU 0 instructions: 50000000 cycles: 16057566 heartbeat IPC: 3.06817 cumulative IPC: 3.1138 (Simulation time: 0 hr 1 min 27 sec) 

Warmup complete CPU 0 instructions: 50000004 cycles: 16057567 (Simulation time: 0 hr 1 min 27 sec) 

Heartbeat CPU 0 instructions: 60000002 cycles: 32055045 heartbeat IPC: 0.625099 cumulative IPC: 0.625098 (Simulation time: 0 hr 1 min 48 sec) 
Heartbeat CPU 0 instructions: 70000003 cycles: 53231071 heartbeat IPC: 0.472232 cumulative IPC: 0.538018 (Simulation time: 0 hr 2 min 16 sec) 
Heartbeat CPU 0 instructions: 80000000 cycles: 60995449 heartbeat IPC: 1.28793 cumulative IPC: 0.667588 (Simulation time: 0 hr 2 min 31 sec) 
Heartbeat CPU 0 instructions: 90000001 cycles: 68871945 heartbeat IPC: 1.2696 cumulative IPC: 0.757369 (Simulation time: 0 hr 2 min 48 sec) 
Heartbeat CPU 0 instructions: 100000003 cycles: 76632158 heartbeat IPC: 1.28862 cumulative IPC: 0.825429 (Simulation time: 0 hr 3 min 4 sec) 
Finished CPU 0 instructions: 50000003 cycles: 60574592 cumulative IPC: 0.825429 (Simulation time: 0 hr 3 min 4 sec) 

ChampSim completed all CPUs

Region of Interest Statistics

CPU 0 cumulative IPC: 0.825429 instructions: 50000003 cycles: 60574592
L1D TOTAL     ACCESS:   21807972  HIT:   17228346  MISS:    4579626
L1D LOAD      ACCESS:    8713990  HIT:    6435885  MISS:    2278105
L1D RFO       ACCESS:    4590809  HIT:    4486408  MISS:     104401
L1D PREFETCH  ACCESS:    8503173  HIT:    6306053  MISS:    2197120
L1D WRITEBACK ACCESS:          0  HIT:          0  MISS:          0
L1D PREFETCH  REQUESTED:    8746853  ISSUED:    8648074  USEFUL:     108539  USELESS:    2088579
L1D AVERAGE MISS LATENCY: 20.0984 cycles
L1I TOTAL     ACCESS:   12209584  HIT:   10727057  MISS:    1482527
L1I LOAD      ACCESS:   10711148  HIT:   10442693  MISS:     268455
L1I RFO       ACCESS:          0  HIT:          0  MISS:          0
L1I PREFETCH  ACCESS:    1498436  HIT:     284364  MISS:    1214072
L1I WRITEBACK ACCESS:          0  HIT:          0  MISS:          0
L1I PREFETCH  REQUESTED:    1757944  ISSUED:    1757944  USEFUL:     849768  USELESS:     364360
L1I AVERAGE MISS LATENCY: 27.2348 cycles
L2C TOTAL     ACCESS:    7784527  HIT:    6823178  MISS:     961349
L2C LOAD      ACCESS:    2437325  HIT:    2122063  MISS:     315262
L2C RFO       ACCESS:     103498  HIT:      63798  MISS:      39700
L2C PREFETCH  ACCESS:    4986857  HIT:    4381368  MISS:     605489
L2C WRITEBACK ACCESS:     256847  HIT:     255949  MISS:        898
L2C PREFETCH  REQUESTED:    6601515  ISSUED:    6599153  USEFUL:      23445  USELESS:     581084
L2C AVERAGE MISS LATENCY: 44.9987 cycles
LLC TOTAL     ACCESS:    2241765  HIT:    2116259  MISS:     125506
LLC LOAD      ACCESS:     314839  HIT:     291736  MISS:      23103
LLC RFO       ACCESS:      39696  HIT:      31292  MISS:       8404
LLC PREFETCH  ACCESS:    1752292  HIT:    1658518  MISS:      93774
LLC WRITEBACK ACCESS:     134938  HIT:     134713  MISS:        225
LLC PREFETCH  REQUESTED:          0  ISSUED:          0  USEFUL:      12403  USELESS:      78616
LLC AVERAGE MISS LATENCY: 167.975 cycles
Major fault: 0 Minor fault: 6351
CPU 0 L1D next line prefetcher final stats

DRAM Statistics
 CHANNEL 0
 RQ ROW_BUFFER_HIT:      23586  ROW_BUFFER_MISS:     101688
 DBUS_CONGESTED:      54573
 WQ ROW_BUFFER_HIT:       8868  ROW_BUFFER_MISS:      37543  FULL:          0

 AVG_CONGESTED_CYCLE: 5

CPU 0 Branch Prediction Accuracy: 99.4713% MPKI: 1.11484 Average ROB Occupancy at Mispredict: 105.797

Branch types
NOT_BRANCH: 39456615 78.9132%
BRANCH_DIRECT_JUMP: 445350 0.8907%
BRANCH_INDIRECT: 131149 0.262298%
BRANCH_CONDITIONAL: 8130196 16.2604%
BRANCH_DIRECT_CALL: 732485 1.46497%
BRANCH_INDIRECT_CALL: 172369 0.344738%
BRANCH_RETURN: 931558 1.86312%
BRANCH_OTHER: 0 0%

