Initialize SIGNATURE TABLE
ST_SET: 1
ST_WAY: 256
ST_TAG_BIT: 16
ST_TAG_MASK: ffff

Initialize PATTERN TABLE
PT_SET: 512
PT_WAY: 4
SIG_DELTA_BIT: 7
C_SIG_BIT: 4
C_DELTA_BIT: 4

Initialize PREFETCH FILTER
FILTER_SET: 1024

*** ChampSim Multicore Out-of-Order Simulator ***

Warmup Instructions: 50000000
Simulation Instructions: 50000000
Number of CPUs: 1
LLC sets: 2048
LLC ways: 16
Off-chip DRAM Size: 4096 MB Channels: 1 Width: 64-bit Data Rate: 3200 MT/s

CPU 0 runs /Users/gandhardeshpande/Desktop/CSE240C/HW1/ChampSim/ipc1_public/server_011.champsimtrace.xz
L1I Barca has been initializedCPU 0 L1D next line prefetcher
Heartbeat CPU 0 instructions: 10000002 cycles: 3205478 heartbeat IPC: 3.11966 cumulative IPC: 3.11966 (Simulation time: 0 hr 0 min 17 sec) 
Heartbeat CPU 0 instructions: 20000001 cycles: 6416035 heartbeat IPC: 3.11472 cumulative IPC: 3.11719 (Simulation time: 0 hr 0 min 34 sec) 
Heartbeat CPU 0 instructions: 30000001 cycles: 9670867 heartbeat IPC: 3.07236 cumulative IPC: 3.1021 (Simulation time: 0 hr 0 min 51 sec) 
Heartbeat CPU 0 instructions: 40000003 cycles: 12872543 heartbeat IPC: 3.12336 cumulative IPC: 3.10739 (Simulation time: 0 hr 1 min 9 sec) 
Heartbeat CPU 0 instructions: 50000000 cycles: 16081377 heartbeat IPC: 3.1164 cumulative IPC: 3.10919 (Simulation time: 0 hr 1 min 26 sec) 

Warmup complete CPU 0 instructions: 50000004 cycles: 16081378 (Simulation time: 0 hr 1 min 26 sec) 

Heartbeat CPU 0 instructions: 60000002 cycles: 24116296 heartbeat IPC: 1.24457 cumulative IPC: 1.24457 (Simulation time: 0 hr 1 min 41 sec) 
Heartbeat CPU 0 instructions: 70000000 cycles: 32677680 heartbeat IPC: 1.16804 cumulative IPC: 1.20509 (Simulation time: 0 hr 1 min 57 sec) 
Heartbeat CPU 0 instructions: 80000003 cycles: 41954894 heartbeat IPC: 1.07791 cumulative IPC: 1.15949 (Simulation time: 0 hr 2 min 13 sec) 
Heartbeat CPU 0 instructions: 90000001 cycles: 50694864 heartbeat IPC: 1.14417 cumulative IPC: 1.15562 (Simulation time: 0 hr 2 min 28 sec) 
Heartbeat CPU 0 instructions: 100000002 cycles: 59095766 heartbeat IPC: 1.19035 cumulative IPC: 1.1624 (Simulation time: 0 hr 2 min 44 sec) 
Finished CPU 0 instructions: 50000002 cycles: 43014389 cumulative IPC: 1.1624 (Simulation time: 0 hr 2 min 44 sec) 

ChampSim completed all CPUs

Region of Interest Statistics

CPU 0 cumulative IPC: 1.1624 instructions: 50000002 cycles: 43014389
L1D TOTAL     ACCESS:   18439788  HIT:   17408415  MISS:    1031373
L1D LOAD      ACCESS:    6914123  HIT:    6436041  MISS:     478082
L1D RFO       ACCESS:    4846950  HIT:    4764943  MISS:      82007
L1D PREFETCH  ACCESS:    6678715  HIT:    6207431  MISS:     471284
L1D WRITEBACK ACCESS:          0  HIT:          0  MISS:          0
L1D PREFETCH  REQUESTED:    6951125  ISSUED:    6855519  USEFUL:     140818  USELESS:     330462
L1D AVERAGE MISS LATENCY: 39.3505 cycles
L1I TOTAL     ACCESS:   10458369  HIT:    8770792  MISS:    1687577
L1I LOAD      ACCESS:    8812592  HIT:    8450121  MISS:     362471
L1I RFO       ACCESS:          0  HIT:          0  MISS:          0
L1I PREFETCH  ACCESS:    1645777  HIT:     320671  MISS:    1325106
L1I WRITEBACK ACCESS:          0  HIT:          0  MISS:          0
L1I PREFETCH  REQUESTED:    1937749  ISSUED:    1937749  USEFUL:     930782  USELESS:     394214
L1I AVERAGE MISS LATENCY: 27.8053 cycles
L2C TOTAL     ACCESS:    3605908  HIT:    2560314  MISS:    1045594
L2C LOAD      ACCESS:     720989  HIT:     341748  MISS:     379241
L2C RFO       ACCESS:      80082  HIT:      35451  MISS:      44631
L2C PREFETCH  ACCESS:    2536719  HIT:    1916085  MISS:     620634
L2C WRITEBACK ACCESS:     268118  HIT:     267030  MISS:       1088
L2C PREFETCH  REQUESTED:    2488580  ISSUED:    2486052  USEFUL:      30223  USELESS:     590735
L2C AVERAGE MISS LATENCY: 48.1798 cycles
LLC TOTAL     ACCESS:    2055792  HIT:    1883214  MISS:     172578
LLC LOAD      ACCESS:     378389  HIT:     342064  MISS:      36325
LLC RFO       ACCESS:      44624  HIT:      31238  MISS:      13386
LLC PREFETCH  ACCESS:    1484624  HIT:    1362142  MISS:     122482
LLC WRITEBACK ACCESS:     148155  HIT:     147770  MISS:        385
LLC PREFETCH  REQUESTED:          0  ISSUED:          0  USEFUL:      20884  USELESS:     100368
LLC AVERAGE MISS LATENCY: 167.406 cycles
Major fault: 0 Minor fault: 6971
CPU 0 L1D next line prefetcher final stats

DRAM Statistics
 CHANNEL 0
 RQ ROW_BUFFER_HIT:      32670  ROW_BUFFER_MISS:     139509
 DBUS_CONGESTED:      74048
 WQ ROW_BUFFER_HIT:      12816  ROW_BUFFER_MISS:      48054  FULL:          0

 AVG_CONGESTED_CYCLE: 5

CPU 0 Branch Prediction Accuracy: 97.5565% MPKI: 4.59006 Average ROB Occupancy at Mispredict: 55.2882

Branch types
NOT_BRANCH: 40607196 81.2144%
BRANCH_DIRECT_JUMP: 451601 0.903202%
BRANCH_INDIRECT: 151580 0.30316%
BRANCH_CONDITIONAL: 7041635 14.0833%
BRANCH_DIRECT_CALL: 647826 1.29565%
BRANCH_INDIRECT_CALL: 211373 0.422746%
BRANCH_RETURN: 888438 1.77688%
BRANCH_OTHER: 0 0%

