Initialize SIGNATURE TABLE
ST_SET: 1
ST_WAY: 256
ST_TAG_BIT: 16
ST_TAG_MASK: ffff

Initialize PATTERN TABLE
PT_SET: 512
PT_WAY: 4
SIG_DELTA_BIT: 7
C_SIG_BIT: 4
C_DELTA_BIT: 4

Initialize PREFETCH FILTER
FILTER_SET: 1024

*** ChampSim Multicore Out-of-Order Simulator ***

Warmup Instructions: 50000000
Simulation Instructions: 50000000
Number of CPUs: 1
LLC sets: 2048
LLC ways: 16
Off-chip DRAM Size: 4096 MB Channels: 1 Width: 64-bit Data Rate: 3200 MT/s

CPU 0 runs /Users/gandhardeshpande/Desktop/CSE240C/HW1/ChampSim/ipc1_public/server_022.champsimtrace.xz
L1I Barca has been initializedCPU 0 L1D next line prefetcher
Heartbeat CPU 0 instructions: 10000002 cycles: 3626161 heartbeat IPC: 2.75774 cumulative IPC: 2.75774 (Simulation time: 0 hr 0 min 20 sec) 
Heartbeat CPU 0 instructions: 20000001 cycles: 7258058 heartbeat IPC: 2.75338 cumulative IPC: 2.75556 (Simulation time: 0 hr 0 min 40 sec) 
Heartbeat CPU 0 instructions: 30000003 cycles: 10883958 heartbeat IPC: 2.75794 cumulative IPC: 2.75635 (Simulation time: 0 hr 1 min 0 sec) 
Heartbeat CPU 0 instructions: 40000003 cycles: 14517016 heartbeat IPC: 2.7525 cumulative IPC: 2.75539 (Simulation time: 0 hr 1 min 21 sec) 
Heartbeat CPU 0 instructions: 50000002 cycles: 18140537 heartbeat IPC: 2.75975 cumulative IPC: 2.75626 (Simulation time: 0 hr 1 min 41 sec) 

Warmup complete CPU 0 instructions: 50000002 cycles: 18140537 (Simulation time: 0 hr 1 min 41 sec) 

Heartbeat CPU 0 instructions: 60000000 cycles: 35571276 heartbeat IPC: 0.573699 cumulative IPC: 0.573699 (Simulation time: 0 hr 2 min 6 sec) 
Heartbeat CPU 0 instructions: 70000001 cycles: 53168613 heartbeat IPC: 0.568268 cumulative IPC: 0.570971 (Simulation time: 0 hr 2 min 32 sec) 
Heartbeat CPU 0 instructions: 80000001 cycles: 70529812 heartbeat IPC: 0.575997 cumulative IPC: 0.572636 (Simulation time: 0 hr 2 min 58 sec) 
Heartbeat CPU 0 instructions: 90000003 cycles: 88133210 heartbeat IPC: 0.568072 cumulative IPC: 0.571488 (Simulation time: 0 hr 3 min 24 sec) 
Heartbeat CPU 0 instructions: 100000003 cycles: 105449018 heartbeat IPC: 0.577507 cumulative IPC: 0.572682 (Simulation time: 0 hr 3 min 50 sec) 
Finished CPU 0 instructions: 50000001 cycles: 87308481 cumulative IPC: 0.572682 (Simulation time: 0 hr 3 min 50 sec) 

ChampSim completed all CPUs

Region of Interest Statistics

CPU 0 cumulative IPC: 0.572682 instructions: 50000001 cycles: 87308481
L1D TOTAL     ACCESS:   18722863  HIT:   16512193  MISS:    2210670
L1D LOAD      ACCESS:    7054148  HIT:    6334253  MISS:     719895
L1D RFO       ACCESS:    5928915  HIT:    4949113  MISS:     979802
L1D PREFETCH  ACCESS:    5739800  HIT:    5228827  MISS:     510973
L1D WRITEBACK ACCESS:          0  HIT:          0  MISS:          0
L1D PREFETCH  REQUESTED:    7097518  ISSUED:    6889159  USEFUL:     189835  USELESS:     321143
L1D AVERAGE MISS LATENCY: 178.779 cycles
L1I TOTAL     ACCESS:   13484751  HIT:   10691817  MISS:    2792934
L1I LOAD      ACCESS:   10113717  HIT:    9927494  MISS:     186223
L1I RFO       ACCESS:          0  HIT:          0  MISS:          0
L1I PREFETCH  ACCESS:    3371034  HIT:     764323  MISS:    2606711
L1I WRITEBACK ACCESS:          0  HIT:          0  MISS:          0
L1I PREFETCH  REQUESTED:    3844609  ISSUED:    3844609  USEFUL:    2364611  USELESS:     242095
L1I AVERAGE MISS LATENCY: 16.3602 cycles
L2C TOTAL     ACCESS:    7418075  HIT:    5564431  MISS:    1853644
L2C LOAD      ACCESS:     504939  HIT:     256956  MISS:     247983
L2C RFO       ACCESS:     978995  HIT:      21237  MISS:     957758
L2C PREFETCH  ACCESS:    4748990  HIT:    4102699  MISS:     646291
L2C WRITEBACK ACCESS:    1185151  HIT:    1183539  MISS:       1612
L2C PREFETCH  REQUESTED:    3681083  ISSUED:    3676788  USEFUL:      20280  USELESS:     626077
L2C AVERAGE MISS LATENCY: 220.72 cycles
LLC TOTAL     ACCESS:    3955845  HIT:    2567116  MISS:    1388729
LLC LOAD      ACCESS:     247945  HIT:     171734  MISS:      76211
LLC RFO       ACCESS:     957752  HIT:     140149  MISS:     817603
LLC PREFETCH  ACCESS:    1634187  HIT:    1141023  MISS:     493164
LLC WRITEBACK ACCESS:    1115961  HIT:    1114210  MISS:       1751
LLC PREFETCH  REQUESTED:          0  ISSUED:          0  USEFUL:      25249  USELESS:     468322
LLC AVERAGE MISS LATENCY: 287.655 cycles
Major fault: 0 Minor fault: 23505
CPU 0 L1D next line prefetcher final stats

DRAM Statistics
 CHANNEL 0
 RQ ROW_BUFFER_HIT:     394751  ROW_BUFFER_MISS:     992011
 DBUS_CONGESTED:    1404051
 WQ ROW_BUFFER_HIT:     288321  ROW_BUFFER_MISS:     613044  FULL:          0

 AVG_CONGESTED_CYCLE: 6

CPU 0 Branch Prediction Accuracy: 99.8317% MPKI: 0.27564 Average ROB Occupancy at Mispredict: 219.516

Branch types
NOT_BRANCH: 41811143 83.6223%
BRANCH_DIRECT_JUMP: 445742 0.891484%
BRANCH_INDIRECT: 48876 0.097752%
BRANCH_CONDITIONAL: 5859406 11.7188%
BRANCH_DIRECT_CALL: 758267 1.51653%
BRANCH_INDIRECT_CALL: 159103 0.318206%
BRANCH_RETURN: 917372 1.83474%
BRANCH_OTHER: 0 0%

