Initialize SIGNATURE TABLE
ST_SET: 1
ST_WAY: 256
ST_TAG_BIT: 16
ST_TAG_MASK: ffff

Initialize PATTERN TABLE
PT_SET: 512
PT_WAY: 4
SIG_DELTA_BIT: 7
C_SIG_BIT: 4
C_DELTA_BIT: 4

Initialize PREFETCH FILTER
FILTER_SET: 1024

*** ChampSim Multicore Out-of-Order Simulator ***

Warmup Instructions: 50000000
Simulation Instructions: 50000000
Number of CPUs: 1
LLC sets: 2048
LLC ways: 16
Off-chip DRAM Size: 4096 MB Channels: 1 Width: 64-bit Data Rate: 3200 MT/s

CPU 0 runs /Users/gandhardeshpande/Desktop/CSE240C/HW1/ChampSim/ipc1_public/server_037.champsimtrace.xz
L1I Barca has been initializedCPU 0 L1D next line prefetcher
Heartbeat CPU 0 instructions: 10000001 cycles: 3321858 heartbeat IPC: 3.01036 cumulative IPC: 3.01036 (Simulation time: 0 hr 0 min 21 sec) 
Heartbeat CPU 0 instructions: 20000002 cycles: 6641974 heartbeat IPC: 3.01194 cumulative IPC: 3.01115 (Simulation time: 0 hr 0 min 43 sec) 
Heartbeat CPU 0 instructions: 30000003 cycles: 10009337 heartbeat IPC: 2.96968 cumulative IPC: 2.9972 (Simulation time: 0 hr 1 min 5 sec) 
Heartbeat CPU 0 instructions: 40000000 cycles: 13330698 heartbeat IPC: 3.01081 cumulative IPC: 3.00059 (Simulation time: 0 hr 1 min 26 sec) 
Heartbeat CPU 0 instructions: 50000003 cycles: 16651577 heartbeat IPC: 3.01125 cumulative IPC: 3.00272 (Simulation time: 0 hr 1 min 48 sec) 

Warmup complete CPU 0 instructions: 50000003 cycles: 16651577 (Simulation time: 0 hr 1 min 48 sec) 

Heartbeat CPU 0 instructions: 60000001 cycles: 23059322 heartbeat IPC: 1.56061 cumulative IPC: 1.56061 (Simulation time: 0 hr 2 min 11 sec) 
Heartbeat CPU 0 instructions: 70000000 cycles: 29569146 heartbeat IPC: 1.53614 cumulative IPC: 1.54828 (Simulation time: 0 hr 2 min 33 sec) 
Heartbeat CPU 0 instructions: 80000000 cycles: 35969094 heartbeat IPC: 1.56251 cumulative IPC: 1.55299 (Simulation time: 0 hr 2 min 56 sec) 
Heartbeat CPU 0 instructions: 90000002 cycles: 42381153 heartbeat IPC: 1.55956 cumulative IPC: 1.55463 (Simulation time: 0 hr 3 min 19 sec) 
*** Reached end of trace for Core: 0 Repeating trace: /Users/gandhardeshpande/Desktop/CSE240C/HW1/ChampSim/ipc1_public/server_037.champsimtrace.xz
Heartbeat CPU 0 instructions: 100000000 cycles: 48793351 heartbeat IPC: 1.55953 cumulative IPC: 1.55561 (Simulation time: 0 hr 3 min 43 sec) 
Finished CPU 0 instructions: 50000001 cycles: 32141775 cumulative IPC: 1.55561 (Simulation time: 0 hr 3 min 43 sec) 

ChampSim completed all CPUs

Region of Interest Statistics

CPU 0 cumulative IPC: 1.55561 instructions: 50000001 cycles: 32141775
L1D TOTAL     ACCESS:   18700337  HIT:   17722366  MISS:     977971
L1D LOAD      ACCESS:    6366326  HIT:    5875315  MISS:     491011
L1D RFO       ACCESS:    6205660  HIT:    6141373  MISS:      64287
L1D PREFETCH  ACCESS:    6128351  HIT:    5705678  MISS:     422673
L1D WRITEBACK ACCESS:          0  HIT:          0  MISS:          0
L1D PREFETCH  REQUESTED:    6403084  ISSUED:    6249917  USEFUL:     117556  USELESS:     305122
L1D AVERAGE MISS LATENCY: 29.4065 cycles
L1I TOTAL     ACCESS:   14999423  HIT:   10169719  MISS:    4829704
L1I LOAD      ACCESS:    9382963  HIT:    9039619  MISS:     343344
L1I RFO       ACCESS:          0  HIT:          0  MISS:          0
L1I PREFETCH  ACCESS:    5616460  HIT:    1130100  MISS:    4486360
L1I WRITEBACK ACCESS:          0  HIT:          0  MISS:          0
L1I PREFETCH  REQUESTED:    6432089  ISSUED:    6432089  USEFUL:    3792172  USELESS:     694261
L1I AVERAGE MISS LATENCY: 14.0211 cycles
L2C TOTAL     ACCESS:    8347379  HIT:    8035558  MISS:     311821
L2C LOAD      ACCESS:     563968  HIT:     423176  MISS:     140792
L2C RFO       ACCESS:      63969  HIT:      37152  MISS:      26817
L2C PREFETCH  ACCESS:    7429905  HIT:    7286683  MISS:     143222
L2C WRITEBACK ACCESS:     289537  HIT:     288547  MISS:        990
L2C PREFETCH  REQUESTED:    5444792  ISSUED:    5430149  USEFUL:       5830  USELESS:     137264
L2C AVERAGE MISS LATENCY: 46.2173 cycles
LLC TOTAL     ACCESS:    1521810  HIT:    1467104  MISS:      54706
LLC LOAD      ACCESS:     140788  HIT:     127228  MISS:      13560
LLC RFO       ACCESS:      26817  HIT:      21705  MISS:       5112
LLC PREFETCH  ACCESS:    1213903  HIT:    1178463  MISS:      35440
LLC WRITEBACK ACCESS:     140302  HIT:     139708  MISS:        594
LLC PREFETCH  REQUESTED:          0  ISSUED:          0  USEFUL:       3114  USELESS:      32449
LLC AVERAGE MISS LATENCY: 164.991 cycles
Major fault: 0 Minor fault: 5652
CPU 0 L1D next line prefetcher final stats

DRAM Statistics
 CHANNEL 0
 RQ ROW_BUFFER_HIT:       8447  ROW_BUFFER_MISS:      45665
 DBUS_CONGESTED:      20192
 WQ ROW_BUFFER_HIT:       1320  ROW_BUFFER_MISS:      10615  FULL:          0

 AVG_CONGESTED_CYCLE: 4

CPU 0 Branch Prediction Accuracy: 99.913% MPKI: 0.15656 Average ROB Occupancy at Mispredict: 201.03

Branch types
NOT_BRANCH: 41001789 82.0036%
BRANCH_DIRECT_JUMP: 541941 1.08388%
BRANCH_INDIRECT: 59716 0.119432%
BRANCH_CONDITIONAL: 5916859 11.8337%
BRANCH_DIRECT_CALL: 1005466 2.01093%
BRANCH_INDIRECT_CALL: 234433 0.468866%
BRANCH_RETURN: 1239881 2.47976%
BRANCH_OTHER: 0 0%

