Initialize SIGNATURE TABLE
ST_SET: 1
ST_WAY: 256
ST_TAG_BIT: 16
ST_TAG_MASK: ffff

Initialize PATTERN TABLE
PT_SET: 512
PT_WAY: 4
SIG_DELTA_BIT: 7
C_SIG_BIT: 4
C_DELTA_BIT: 4

Initialize PREFETCH FILTER
FILTER_SET: 1024

*** ChampSim Multicore Out-of-Order Simulator ***

Warmup Instructions: 50000000
Simulation Instructions: 50000000
Number of CPUs: 1
LLC sets: 2048
LLC ways: 16
Off-chip DRAM Size: 4096 MB Channels: 1 Width: 64-bit Data Rate: 3200 MT/s

CPU 0 runs /Users/gandhardeshpande/Desktop/CSE240C/HW1/ChampSim/ipc1_public/server_023.champsimtrace.xz
L1I Barca has been initializedCPU 0 L1D next line prefetcher
Heartbeat CPU 0 instructions: 10000000 cycles: 3499876 heartbeat IPC: 2.85724 cumulative IPC: 2.85724 (Simulation time: 0 hr 0 min 20 sec) 
Heartbeat CPU 0 instructions: 20000000 cycles: 6999013 heartbeat IPC: 2.85785 cumulative IPC: 2.85755 (Simulation time: 0 hr 0 min 39 sec) 
Heartbeat CPU 0 instructions: 30000001 cycles: 10492041 heartbeat IPC: 2.86285 cumulative IPC: 2.85931 (Simulation time: 0 hr 0 min 59 sec) 
Heartbeat CPU 0 instructions: 40000003 cycles: 13990469 heartbeat IPC: 2.85843 cumulative IPC: 2.85909 (Simulation time: 0 hr 1 min 19 sec) 
Heartbeat CPU 0 instructions: 50000001 cycles: 17490906 heartbeat IPC: 2.85679 cumulative IPC: 2.85863 (Simulation time: 0 hr 1 min 39 sec) 

Warmup complete CPU 0 instructions: 50000001 cycles: 17490906 (Simulation time: 0 hr 1 min 39 sec) 

Heartbeat CPU 0 instructions: 60000002 cycles: 24275631 heartbeat IPC: 1.4739 cumulative IPC: 1.4739 (Simulation time: 0 hr 1 min 59 sec) 
Heartbeat CPU 0 instructions: 70000002 cycles: 31282479 heartbeat IPC: 1.42718 cumulative IPC: 1.45016 (Simulation time: 0 hr 2 min 18 sec) 
Heartbeat CPU 0 instructions: 80000000 cycles: 38192975 heartbeat IPC: 1.44707 cumulative IPC: 1.44913 (Simulation time: 0 hr 2 min 38 sec) 
Heartbeat CPU 0 instructions: 90000000 cycles: 45126015 heartbeat IPC: 1.44237 cumulative IPC: 1.44743 (Simulation time: 0 hr 2 min 56 sec) 
Heartbeat CPU 0 instructions: 100000001 cycles: 52016392 heartbeat IPC: 1.4513 cumulative IPC: 1.44821 (Simulation time: 0 hr 3 min 16 sec) 
Finished CPU 0 instructions: 50000000 cycles: 34525486 cumulative IPC: 1.44821 (Simulation time: 0 hr 3 min 16 sec) 

ChampSim completed all CPUs

Region of Interest Statistics

CPU 0 cumulative IPC: 1.44821 instructions: 50000000 cycles: 34525486
L1D TOTAL     ACCESS:   19451552  HIT:   17984839  MISS:    1466713
L1D LOAD      ACCESS:    6892548  HIT:    6232083  MISS:     660465
L1D RFO       ACCESS:    5985952  HIT:    5724458  MISS:     261494
L1D PREFETCH  ACCESS:    6573052  HIT:    6028298  MISS:     544754
L1D WRITEBACK ACCESS:          0  HIT:          0  MISS:          0
L1D PREFETCH  REQUESTED:    6941764  ISSUED:    6823428  USEFUL:     130518  USELESS:     414244
L1D AVERAGE MISS LATENCY: 24.3078 cycles
L1I TOTAL     ACCESS:   13077000  HIT:    9771470  MISS:    3305530
L1I LOAD      ACCESS:    9345250  HIT:    9047725  MISS:     297525
L1I RFO       ACCESS:          0  HIT:          0  MISS:          0
L1I PREFETCH  ACCESS:    3731750  HIT:     723745  MISS:    3008005
L1I WRITEBACK ACCESS:          0  HIT:          0  MISS:          0
L1I PREFETCH  REQUESTED:    4299979  ISSUED:    4299979  USEFUL:    2194045  USELESS:     813891
L1I AVERAGE MISS LATENCY: 16.5274 cycles
L2C TOTAL     ACCESS:    6424089  HIT:    5786060  MISS:     638029
L2C LOAD      ACCESS:     731496  HIT:     591402  MISS:     140094
L2C RFO       ACCESS:     259357  HIT:     177023  MISS:      82334
L2C PREFETCH  ACCESS:    4934004  HIT:    4521356  MISS:     412648
L2C WRITEBACK ACCESS:     499232  HIT:     496279  MISS:       2953
L2C PREFETCH  REQUESTED:    3419359  ISSUED:    3417082  USEFUL:      15183  USELESS:     397252
L2C AVERAGE MISS LATENCY: 41.2273 cycles
LLC TOTAL     ACCESS:    1728564  HIT:    1681239  MISS:      47325
LLC LOAD      ACCESS:     139969  HIT:     133556  MISS:       6413
LLC RFO       ACCESS:      82320  HIT:      64301  MISS:      18019
LLC PREFETCH  ACCESS:    1369357  HIT:    1346653  MISS:      22704
LLC WRITEBACK ACCESS:     136918  HIT:     136729  MISS:        189
LLC PREFETCH  REQUESTED:          0  ISSUED:          0  USEFUL:       2113  USELESS:      20669
LLC AVERAGE MISS LATENCY: 181.303 cycles
Major fault: 0 Minor fault: 2766
CPU 0 L1D next line prefetcher final stats

DRAM Statistics
 CHANNEL 0
 RQ ROW_BUFFER_HIT:      14625  ROW_BUFFER_MISS:      32501
 DBUS_CONGESTED:      30180
 WQ ROW_BUFFER_HIT:       2517  ROW_BUFFER_MISS:      18683  FULL:          0

 AVG_CONGESTED_CYCLE: 6

CPU 0 Branch Prediction Accuracy: 99.6798% MPKI: 0.58608 Average ROB Occupancy at Mispredict: 138.776

Branch types
NOT_BRANCH: 40848322 81.6966%
BRANCH_DIRECT_JUMP: 548372 1.09674%
BRANCH_INDIRECT: 189802 0.379604%
BRANCH_CONDITIONAL: 6372772 12.7455%
BRANCH_DIRECT_CALL: 862207 1.72441%
BRANCH_INDIRECT_CALL: 158149 0.316298%
BRANCH_RETURN: 1020345 2.04069%
BRANCH_OTHER: 0 0%

