Initialize SIGNATURE TABLE
ST_SET: 1
ST_WAY: 256
ST_TAG_BIT: 16
ST_TAG_MASK: ffff

Initialize PATTERN TABLE
PT_SET: 512
PT_WAY: 4
SIG_DELTA_BIT: 7
C_SIG_BIT: 4
C_DELTA_BIT: 4

Initialize PREFETCH FILTER
FILTER_SET: 1024

*** ChampSim Multicore Out-of-Order Simulator ***

Warmup Instructions: 50000000
Simulation Instructions: 50000000
Number of CPUs: 1
LLC sets: 2048
LLC ways: 16
Off-chip DRAM Size: 4096 MB Channels: 1 Width: 64-bit Data Rate: 3200 MT/s

CPU 0 runs /Users/gandhardeshpande/Desktop/CSE240C/HW1/ChampSim/ipc1_public/spec_gobmk_001.champsimtrace.xz
L1I Barca has been initializedCPU 0 L1D next line prefetcher
Heartbeat CPU 0 instructions: 10000003 cycles: 3510232 heartbeat IPC: 2.84882 cumulative IPC: 2.84882 (Simulation time: 0 hr 0 min 18 sec) 
Heartbeat CPU 0 instructions: 20000002 cycles: 6990917 heartbeat IPC: 2.873 cumulative IPC: 2.86086 (Simulation time: 0 hr 0 min 35 sec) 
Heartbeat CPU 0 instructions: 30000002 cycles: 10509974 heartbeat IPC: 2.84167 cumulative IPC: 2.85443 (Simulation time: 0 hr 0 min 53 sec) 
Heartbeat CPU 0 instructions: 40000001 cycles: 14029231 heartbeat IPC: 2.84151 cumulative IPC: 2.85119 (Simulation time: 0 hr 1 min 10 sec) 
Heartbeat CPU 0 instructions: 50000001 cycles: 17569617 heartbeat IPC: 2.82455 cumulative IPC: 2.84582 (Simulation time: 0 hr 1 min 28 sec) 

Warmup complete CPU 0 instructions: 50000001 cycles: 17569617 (Simulation time: 0 hr 1 min 28 sec) 

Heartbeat CPU 0 instructions: 60000000 cycles: 26282746 heartbeat IPC: 1.14769 cumulative IPC: 1.14769 (Simulation time: 0 hr 1 min 43 sec) 
Heartbeat CPU 0 instructions: 70000002 cycles: 34629986 heartbeat IPC: 1.198 cumulative IPC: 1.17231 (Simulation time: 0 hr 1 min 59 sec) 
Heartbeat CPU 0 instructions: 80000003 cycles: 43414455 heartbeat IPC: 1.13837 cumulative IPC: 1.16077 (Simulation time: 0 hr 2 min 13 sec) 
Heartbeat CPU 0 instructions: 90000001 cycles: 51874728 heartbeat IPC: 1.18199 cumulative IPC: 1.16601 (Simulation time: 0 hr 2 min 27 sec) 
Heartbeat CPU 0 instructions: 100000003 cycles: 60644390 heartbeat IPC: 1.1403 cumulative IPC: 1.16077 (Simulation time: 0 hr 2 min 42 sec) 
Finished CPU 0 instructions: 50000002 cycles: 43074773 cumulative IPC: 1.16077 (Simulation time: 0 hr 2 min 42 sec) 

ChampSim completed all CPUs

Region of Interest Statistics

CPU 0 cumulative IPC: 1.16077 instructions: 50000002 cycles: 43074773
L1D TOTAL     ACCESS:   17961396  HIT:   17581874  MISS:     379522
L1D LOAD      ACCESS:    7199764  HIT:    7064085  MISS:     135679
L1D RFO       ACCESS:    3701800  HIT:    3597225  MISS:     104575
L1D PREFETCH  ACCESS:    7059832  HIT:    6920564  MISS:     139268
L1D WRITEBACK ACCESS:          0  HIT:          0  MISS:          0
L1D PREFETCH  REQUESTED:    7205178  ISSUED:    7122401  USEFUL:      44568  USELESS:      94705
L1D AVERAGE MISS LATENCY: 32.7796 cycles
L1I TOTAL     ACCESS:   10422819  HIT:    9320855  MISS:    1101964
L1I LOAD      ACCESS:    8938320  HIT:    8888055  MISS:      50265
L1I RFO       ACCESS:          0  HIT:          0  MISS:          0
L1I PREFETCH  ACCESS:    1484499  HIT:     432800  MISS:    1051699
L1I WRITEBACK ACCESS:          0  HIT:          0  MISS:          0
L1I PREFETCH  REQUESTED:    1596947  ISSUED:    1596947  USEFUL:     618937  USELESS:     432725
L1I AVERAGE MISS LATENCY: 14.8894 cycles
L2C TOTAL     ACCESS:    2053509  HIT:    1927603  MISS:     125906
L2C LOAD      ACCESS:     136857  HIT:     101699  MISS:      35158
L2C RFO       ACCESS:     104222  HIT:      70709  MISS:      33513
L2C PREFETCH  ACCESS:    1673136  HIT:    1615912  MISS:      57224
L2C WRITEBACK ACCESS:     139294  HIT:     139283  MISS:         11
L2C PREFETCH  REQUESTED:     780953  ISSUED:     780923  USEFUL:       4128  USELESS:      53565
L2C AVERAGE MISS LATENCY: 62.1176 cycles
LLC TOTAL     ACCESS:     260309  HIT:     229174  MISS:      31135
LLC LOAD      ACCESS:      35155  HIT:      27049  MISS:       8106
LLC RFO       ACCESS:      33513  HIT:      28965  MISS:       4548
LLC PREFETCH  ACCESS:     147509  HIT:     129270  MISS:      18239
LLC WRITEBACK ACCESS:      44132  HIT:      43890  MISS:        242
LLC PREFETCH  REQUESTED:          0  ISSUED:          0  USEFUL:       1298  USELESS:      15640
LLC AVERAGE MISS LATENCY: 181.029 cycles
Major fault: 0 Minor fault: 4156
CPU 0 L1D next line prefetcher final stats

DRAM Statistics
 CHANNEL 0
 RQ ROW_BUFFER_HIT:       3179  ROW_BUFFER_MISS:      27714
 DBUS_CONGESTED:      16824
 WQ ROW_BUFFER_HIT:       1066  ROW_BUFFER_MISS:      12974  FULL:          0

 AVG_CONGESTED_CYCLE: 4

CPU 0 Branch Prediction Accuracy: 94.7729% MPKI: 9.72684 Average ROB Occupancy at Mispredict: 54.6587

Branch types
NOT_BRANCH: 40695383 81.3908%
BRANCH_DIRECT_JUMP: 422107 0.844214%
BRANCH_INDIRECT: 65 0.00013%
BRANCH_CONDITIONAL: 8105005 16.21%
BRANCH_DIRECT_CALL: 374913 0.749826%
BRANCH_INDIRECT_CALL: 13657 0.027314%
BRANCH_RETURN: 388556 0.777112%
BRANCH_OTHER: 0 0%

