Initialize SIGNATURE TABLE
ST_SET: 1
ST_WAY: 256
ST_TAG_BIT: 16
ST_TAG_MASK: ffff

Initialize PATTERN TABLE
PT_SET: 512
PT_WAY: 4
SIG_DELTA_BIT: 7
C_SIG_BIT: 4
C_DELTA_BIT: 4

Initialize PREFETCH FILTER
FILTER_SET: 1024

*** ChampSim Multicore Out-of-Order Simulator ***

Warmup Instructions: 50000000
Simulation Instructions: 50000000
Number of CPUs: 1
LLC sets: 2048
LLC ways: 16
Off-chip DRAM Size: 4096 MB Channels: 1 Width: 64-bit Data Rate: 3200 MT/s

CPU 0 runs /Users/gandhardeshpande/Desktop/CSE240C/HW1/ChampSim/ipc1_public/spec_x264_001.champsimtrace.xz
L1I Barca has been initializedCPU 0 L1D next line prefetcher
Heartbeat CPU 0 instructions: 10000002 cycles: 3060609 heartbeat IPC: 3.26732 cumulative IPC: 3.26732 (Simulation time: 0 hr 0 min 11 sec) 
Heartbeat CPU 0 instructions: 20000002 cycles: 6111459 heartbeat IPC: 3.27778 cumulative IPC: 3.27254 (Simulation time: 0 hr 0 min 22 sec) 
Heartbeat CPU 0 instructions: 30000002 cycles: 9147745 heartbeat IPC: 3.2935 cumulative IPC: 3.2795 (Simulation time: 0 hr 0 min 33 sec) 
Heartbeat CPU 0 instructions: 40000000 cycles: 12192926 heartbeat IPC: 3.28388 cumulative IPC: 3.28059 (Simulation time: 0 hr 0 min 44 sec) 
Heartbeat CPU 0 instructions: 50000000 cycles: 15236758 heartbeat IPC: 3.28533 cumulative IPC: 3.28154 (Simulation time: 0 hr 0 min 55 sec) 

Warmup complete CPU 0 instructions: 50000004 cycles: 15236759 (Simulation time: 0 hr 0 min 55 sec) 

Heartbeat CPU 0 instructions: 60000002 cycles: 21167701 heartbeat IPC: 1.68607 cumulative IPC: 1.68607 (Simulation time: 0 hr 1 min 2 sec) 
Heartbeat CPU 0 instructions: 70000000 cycles: 27075355 heartbeat IPC: 1.69272 cumulative IPC: 1.68939 (Simulation time: 0 hr 1 min 8 sec) 
Heartbeat CPU 0 instructions: 80000003 cycles: 33131148 heartbeat IPC: 1.65131 cumulative IPC: 1.6765 (Simulation time: 0 hr 1 min 15 sec) 
Heartbeat CPU 0 instructions: 90000002 cycles: 39167363 heartbeat IPC: 1.65667 cumulative IPC: 1.6715 (Simulation time: 0 hr 1 min 21 sec) 
Heartbeat CPU 0 instructions: 100000002 cycles: 45064076 heartbeat IPC: 1.69586 cumulative IPC: 1.67632 (Simulation time: 0 hr 1 min 28 sec) 
Finished CPU 0 instructions: 50000002 cycles: 29827318 cumulative IPC: 1.67632 (Simulation time: 0 hr 1 min 28 sec) 

ChampSim completed all CPUs

Region of Interest Statistics

CPU 0 cumulative IPC: 1.67632 instructions: 50000002 cycles: 29827318
L1D TOTAL     ACCESS:   12957928  HIT:   12796891  MISS:     161037
L1D LOAD      ACCESS:    5092692  HIT:    5037483  MISS:      55209
L1D RFO       ACCESS:    2882673  HIT:    2848448  MISS:      34225
L1D PREFETCH  ACCESS:    4982563  HIT:    4910960  MISS:      71603
L1D WRITEBACK ACCESS:          0  HIT:          0  MISS:          0
L1D PREFETCH  REQUESTED:    5109508  ISSUED:    5041665  USEFUL:      25744  USELESS:      45668
L1D AVERAGE MISS LATENCY: 40.7703 cycles
L1I TOTAL     ACCESS:    8444092  HIT:    8096770  MISS:     347322
L1I LOAD      ACCESS:    8028189  HIT:    8013485  MISS:      14704
L1I RFO       ACCESS:          0  HIT:          0  MISS:          0
L1I PREFETCH  ACCESS:     415903  HIT:      83285  MISS:     332618
L1I WRITEBACK ACCESS:          0  HIT:          0  MISS:          0
L1I PREFETCH  REQUESTED:     466080  ISSUED:     466080  USEFUL:     277959  USELESS:      54691
L1I AVERAGE MISS LATENCY: 14.236 cycles
L2C TOTAL     ACCESS:     734276  HIT:     695088  MISS:      39188
L2C LOAD      ACCESS:      58914  HIT:      53500  MISS:       5414
L2C RFO       ACCESS:      33982  HIT:      21927  MISS:      12055
L2C PREFETCH  ACCESS:     598318  HIT:     576679  MISS:      21639
L2C WRITEBACK ACCESS:      43062  HIT:      42982  MISS:         80
L2C PREFETCH  REQUESTED:     440466  ISSUED:     440146  USEFUL:       8949  USELESS:      12947
L2C AVERAGE MISS LATENCY: 106.73 cycles
LLC TOTAL     ACCESS:     121328  HIT:      92159  MISS:      29169
LLC LOAD      ACCESS:       5414  HIT:       3248  MISS:       2166
LLC RFO       ACCESS:      12055  HIT:        425  MISS:      11630
LLC PREFETCH  ACCESS:      90314  HIT:      75040  MISS:      15274
LLC WRITEBACK ACCESS:      13545  HIT:      13446  MISS:         99
LLC PREFETCH  REQUESTED:          0  ISSUED:          0  USEFUL:       1697  USELESS:      14108
LLC AVERAGE MISS LATENCY: 161.594 cycles
Major fault: 0 Minor fault: 1284
CPU 0 L1D next line prefetcher final stats

DRAM Statistics
 CHANNEL 0
 RQ ROW_BUFFER_HIT:       9886  ROW_BUFFER_MISS:      19184
 DBUS_CONGESTED:      12273
 WQ ROW_BUFFER_HIT:       2828  ROW_BUFFER_MISS:       9875  FULL:          0

 AVG_CONGESTED_CYCLE: 6

CPU 0 Branch Prediction Accuracy: 97.1633% MPKI: 1.73704 Average ROB Occupancy at Mispredict: 42.8459

Branch types
NOT_BRANCH: 46937921 93.8758%
BRANCH_DIRECT_JUMP: 170816 0.341632%
BRANCH_INDIRECT: 0 0%
BRANCH_CONDITIONAL: 2532774 5.06555%
BRANCH_DIRECT_CALL: 114227 0.228454%
BRANCH_INDIRECT_CALL: 64863 0.129726%
BRANCH_RETURN: 179089 0.358178%
BRANCH_OTHER: 0 0%

