
*** ChampSim Multicore Out-of-Order Simulator ***

Warmup Instructions: 10000000
Simulation Instructions: 100000000
Configuration: 2
Number of CPUs: 1
LLC sets: 2048
LLC ways: 16
Off-chip DRAM Channels: 1 Width: 64-bit Data Rate: 1600 MT/s

CPU 0 runs /datasets/cs240c-wi22-a00-public/data/Assignment2-gz/cactusADM_734B.trace.gz
CPU 0 L1D next line prefetcher
CPU 0 L2C IP-based stride prefetcher
Heartbeat CPU 0 instructions: 1000003 cycles: 592726 heartbeat IPC: 1.68713 cumulative IPC: 1.68713 (Simulation time: 0 hr 0 min 32 sec) 
select_counter is 505
Heartbeat CPU 0 instructions: 2000001 cycles: 1185927 heartbeat IPC: 1.68577 cumulative IPC: 1.68645 (Simulation time: 0 hr 1 min 6 sec) 
select_counter is 514
Heartbeat CPU 0 instructions: 3000003 cycles: 1778979 heartbeat IPC: 1.6862 cumulative IPC: 1.68636 (Simulation time: 0 hr 1 min 42 sec) 
select_counter is 509
Heartbeat CPU 0 instructions: 4000000 cycles: 2371929 heartbeat IPC: 1.68648 cumulative IPC: 1.68639 (Simulation time: 0 hr 2 min 15 sec) 
select_counter is 505
Heartbeat CPU 0 instructions: 5000000 cycles: 2965279 heartbeat IPC: 1.68535 cumulative IPC: 1.68618 (Simulation time: 0 hr 2 min 48 sec) 
select_counter is 514
Heartbeat CPU 0 instructions: 6000002 cycles: 3558551 heartbeat IPC: 1.68557 cumulative IPC: 1.68608 (Simulation time: 0 hr 3 min 20 sec) 
select_counter is 508
Heartbeat CPU 0 instructions: 7000000 cycles: 4151394 heartbeat IPC: 1.68678 cumulative IPC: 1.68618 (Simulation time: 0 hr 3 min 54 sec) 
select_counter is 517
Heartbeat CPU 0 instructions: 8000000 cycles: 4744343 heartbeat IPC: 1.68649 cumulative IPC: 1.68622 (Simulation time: 0 hr 4 min 30 sec) 
select_counter is 528
Heartbeat CPU 0 instructions: 9000001 cycles: 5337493 heartbeat IPC: 1.68592 cumulative IPC: 1.68619 (Simulation time: 0 hr 5 min 4 sec) 
select_counter is 557
Heartbeat CPU 0 instructions: 10000003 cycles: 5958967 heartbeat IPC: 1.60908 cumulative IPC: 1.67814 (Simulation time: 0 hr 5 min 38 sec) 
select_counter is 582

Warmup complete CPU 0 instructions: 10000003 cycles: 5958967 (Simulation time: 0 hr 5 min 38 sec) 

Heartbeat CPU 0 instructions: 11000002 cycles: 12545628 heartbeat IPC: 0.151822 cumulative IPC: 0.151822 (Simulation time: 0 hr 6 min 24 sec) 
select_counter is 739
Heartbeat CPU 0 instructions: 12000000 cycles: 14287750 heartbeat IPC: 0.574011 cumulative IPC: 0.240131 (Simulation time: 0 hr 6 min 59 sec) 
select_counter is 769
Heartbeat CPU 0 instructions: 13000002 cycles: 15975399 heartbeat IPC: 0.592541 cumulative IPC: 0.299508 (Simulation time: 0 hr 7 min 33 sec) 
select_counter is 788
Heartbeat CPU 0 instructions: 14000000 cycles: 17660939 heartbeat IPC: 0.59328 cumulative IPC: 0.341822 (Simulation time: 0 hr 8 min 11 sec) 
select_counter is 821
Heartbeat CPU 0 instructions: 15000003 cycles: 19400710 heartbeat IPC: 0.57479 cumulative IPC: 0.371976 (Simulation time: 0 hr 8 min 51 sec) 
select_counter is 858
Heartbeat CPU 0 instructions: 16000000 cycles: 21143272 heartbeat IPC: 0.573866 cumulative IPC: 0.395145 (Simulation time: 0 hr 9 min 26 sec) 
select_counter is 887
Heartbeat CPU 0 instructions: 17000002 cycles: 22877371 heartbeat IPC: 0.57667 cumulative IPC: 0.413751 (Simulation time: 0 hr 10 min 1 sec) 
select_counter is 925
Heartbeat CPU 0 instructions: 18000001 cycles: 24535316 heartbeat IPC: 0.603156 cumulative IPC: 0.430655 (Simulation time: 0 hr 10 min 36 sec) 
select_counter is 960
Heartbeat CPU 0 instructions: 19000000 cycles: 26252177 heartbeat IPC: 0.582458 cumulative IPC: 0.443498 (Simulation time: 0 hr 11 min 11 sec) 
select_counter is 994
Heartbeat CPU 0 instructions: 20000000 cycles: 27995044 heartbeat IPC: 0.573767 cumulative IPC: 0.453801 (Simulation time: 0 hr 11 min 48 sec) 
select_counter is 1019
Heartbeat CPU 0 instructions: 21000002 cycles: 29738509 heartbeat IPC: 0.573572 cumulative IPC: 0.462582 (Simulation time: 0 hr 12 min 24 sec) 
select_counter is 1020
Heartbeat CPU 0 instructions: 22000000 cycles: 31447753 heartbeat IPC: 0.585053 cumulative IPC: 0.470795 (Simulation time: 0 hr 13 min 3 sec) 
select_counter is 1023
Heartbeat CPU 0 instructions: 23000001 cycles: 33112054 heartbeat IPC: 0.600853 cumulative IPC: 0.478767 (Simulation time: 0 hr 13 min 37 sec) 
select_counter is 1022
Heartbeat CPU 0 instructions: 24000000 cycles: 40782560 heartbeat IPC: 0.130369 cumulative IPC: 0.402026 (Simulation time: 0 hr 14 min 18 sec) 
select_counter is 967
Heartbeat CPU 0 instructions: 25000000 cycles: 42524010 heartbeat IPC: 0.574234 cumulative IPC: 0.410228 (Simulation time: 0 hr 14 min 48 sec) 
select_counter is 997
Heartbeat CPU 0 instructions: 26000002 cycles: 44258667 heartbeat IPC: 0.576484 cumulative IPC: 0.417758 (Simulation time: 0 hr 15 min 17 sec) 
select_counter is 982
Heartbeat CPU 0 instructions: 27000002 cycles: 45922192 heartbeat IPC: 0.601133 cumulative IPC: 0.425391 (Simulation time: 0 hr 15 min 49 sec) 
select_counter is 972
Heartbeat CPU 0 instructions: 28000000 cycles: 47648070 heartbeat IPC: 0.579414 cumulative IPC: 0.431767 (Simulation time: 0 hr 16 min 20 sec) 
select_counter is 963
Heartbeat CPU 0 instructions: 29000001 cycles: 49407245 heartbeat IPC: 0.568449 cumulative IPC: 0.437302 (Simulation time: 0 hr 16 min 50 sec) 
select_counter is 962
Heartbeat CPU 0 instructions: 30000001 cycles: 51149619 heartbeat IPC: 0.57393 cumulative IPC: 0.442569 (Simulation time: 0 hr 17 min 19 sec) 
select_counter is 974
Heartbeat CPU 0 instructions: 31000003 cycles: 52862340 heartbeat IPC: 0.583867 cumulative IPC: 0.447729 (Simulation time: 0 hr 17 min 49 sec) 
select_counter is 990
Heartbeat CPU 0 instructions: 32000000 cycles: 54520968 heartbeat IPC: 0.602906 cumulative IPC: 0.453029 (Simulation time: 0 hr 18 min 18 sec) 
select_counter is 1010
Heartbeat CPU 0 instructions: 33000000 cycles: 56256200 heartbeat IPC: 0.576292 cumulative IPC: 0.457282 (Simulation time: 0 hr 18 min 46 sec) 
select_counter is 1021
Heartbeat CPU 0 instructions: 34000001 cycles: 58000658 heartbeat IPC: 0.573245 cumulative IPC: 0.461169 (Simulation time: 0 hr 19 min 16 sec) 
select_counter is 1022
Heartbeat CPU 0 instructions: 35000000 cycles: 59738827 heartbeat IPC: 0.575318 cumulative IPC: 0.464858 (Simulation time: 0 hr 19 min 45 sec) 
select_counter is 1019
Heartbeat CPU 0 instructions: 36000000 cycles: 61421898 heartbeat IPC: 0.594152 cumulative IPC: 0.468782 (Simulation time: 0 hr 20 min 15 sec) 
select_counter is 1021
Heartbeat CPU 0 instructions: 37000003 cycles: 69031723 heartbeat IPC: 0.131409 cumulative IPC: 0.428077 (Simulation time: 0 hr 20 min 51 sec) 
select_counter is 968
Heartbeat CPU 0 instructions: 38000001 cycles: 70772737 heartbeat IPC: 0.574377 cumulative IPC: 0.432007 (Simulation time: 0 hr 21 min 22 sec) 
select_counter is 964
Heartbeat CPU 0 instructions: 39000001 cycles: 72514082 heartbeat IPC: 0.574269 cumulative IPC: 0.435729 (Simulation time: 0 hr 21 min 50 sec) 
select_counter is 944
Heartbeat CPU 0 instructions: 40000000 cycles: 74231772 heartbeat IPC: 0.582177 cumulative IPC: 0.439414 (Simulation time: 0 hr 22 min 17 sec) 
select_counter is 926
Heartbeat CPU 0 instructions: 41000001 cycles: 75887379 heartbeat IPC: 0.604009 cumulative IPC: 0.44331 (Simulation time: 0 hr 22 min 45 sec) 
select_counter is 906
Heartbeat CPU 0 instructions: 42000002 cycles: 77623215 heartbeat IPC: 0.576092 cumulative IPC: 0.446527 (Simulation time: 0 hr 23 min 13 sec) 
select_counter is 892
Heartbeat CPU 0 instructions: 43000000 cycles: 79364591 heartbeat IPC: 0.574257 cumulative IPC: 0.449557 (Simulation time: 0 hr 23 min 41 sec) 
select_counter is 892
Heartbeat CPU 0 instructions: 44000000 cycles: 81104710 heartbeat IPC: 0.574673 cumulative IPC: 0.452454 (Simulation time: 0 hr 24 min 10 sec) 
select_counter is 903
Heartbeat CPU 0 instructions: 45000000 cycles: 82790289 heartbeat IPC: 0.593268 cumulative IPC: 0.455543 (Simulation time: 0 hr 24 min 38 sec) 
select_counter is 910
Heartbeat CPU 0 instructions: 46000003 cycles: 84473924 heartbeat IPC: 0.593955 cumulative IPC: 0.458511 (Simulation time: 0 hr 25 min 6 sec) 
select_counter is 926
Heartbeat CPU 0 instructions: 47000001 cycles: 86212300 heartbeat IPC: 0.575248 cumulative IPC: 0.46104 (Simulation time: 0 hr 25 min 34 sec) 
select_counter is 945
Heartbeat CPU 0 instructions: 48000000 cycles: 87953680 heartbeat IPC: 0.574257 cumulative IPC: 0.463444 (Simulation time: 0 hr 26 min 1 sec) 
select_counter is 974
Heartbeat CPU 0 instructions: 49000000 cycles: 89689953 heartbeat IPC: 0.575946 cumulative IPC: 0.465777 (Simulation time: 0 hr 26 min 28 sec) 
select_counter is 1011
Heartbeat CPU 0 instructions: 50000001 cycles: 97199803 heartbeat IPC: 0.133159 cumulative IPC: 0.4384 (Simulation time: 0 hr 27 min 5 sec) 
select_counter is 976
Heartbeat CPU 0 instructions: 51000000 cycles: 98929224 heartbeat IPC: 0.578228 cumulative IPC: 0.441001 (Simulation time: 0 hr 27 min 32 sec) 
select_counter is 992
Heartbeat CPU 0 instructions: 52000000 cycles: 100668097 heartbeat IPC: 0.575085 cumulative IPC: 0.443463 (Simulation time: 0 hr 27 min 59 sec) 
select_counter is 972
Heartbeat CPU 0 instructions: 53000003 cycles: 102406073 heartbeat IPC: 0.575384 cumulative IPC: 0.44584 (Simulation time: 0 hr 28 min 27 sec) 
select_counter is 965
Heartbeat CPU 0 instructions: 54000000 cycles: 104093318 heartbeat IPC: 0.59268 cumulative IPC: 0.448365 (Simulation time: 0 hr 28 min 54 sec) 
select_counter is 946
Heartbeat CPU 0 instructions: 55000001 cycles: 105769548 heartbeat IPC: 0.596577 cumulative IPC: 0.450854 (Simulation time: 0 hr 29 min 21 sec) 
select_counter is 939
Heartbeat CPU 0 instructions: 56000000 cycles: 107521205 heartbeat IPC: 0.570887 cumulative IPC: 0.452924 (Simulation time: 0 hr 29 min 49 sec) 
select_counter is 932
Heartbeat CPU 0 instructions: 57000000 cycles: 109269994 heartbeat IPC: 0.571824 cumulative IPC: 0.454937 (Simulation time: 0 hr 30 min 18 sec) 
select_counter is 929
Heartbeat CPU 0 instructions: 58000001 cycles: 111003778 heartbeat IPC: 0.576774 cumulative IPC: 0.456948 (Simulation time: 0 hr 30 min 46 sec) 
select_counter is 947
Heartbeat CPU 0 instructions: 59000000 cycles: 112661925 heartbeat IPC: 0.603082 cumulative IPC: 0.459219 (Simulation time: 0 hr 31 min 13 sec) 
select_counter is 942
Heartbeat CPU 0 instructions: 60000000 cycles: 114368709 heartbeat IPC: 0.585897 cumulative IPC: 0.461213 (Simulation time: 0 hr 31 min 40 sec) 
select_counter is 972
Heartbeat CPU 0 instructions: 61000002 cycles: 116108030 heartbeat IPC: 0.574938 cumulative IPC: 0.463009 (Simulation time: 0 hr 32 min 8 sec) 
select_counter is 984
Heartbeat CPU 0 instructions: 62000002 cycles: 117848284 heartbeat IPC: 0.574629 cumulative IPC: 0.464745 (Simulation time: 0 hr 32 min 36 sec) 
select_counter is 1022
Heartbeat CPU 0 instructions: 63000002 cycles: 125288857 heartbeat IPC: 0.134398 cumulative IPC: 0.444147 (Simulation time: 0 hr 33 min 11 sec) 
select_counter is 977
Heartbeat CPU 0 instructions: 64000000 cycles: 127242298 heartbeat IPC: 0.511916 cumulative IPC: 0.445238 (Simulation time: 0 hr 33 min 39 sec) 
select_counter is 976
Heartbeat CPU 0 instructions: 65000003 cycles: 128979542 heartbeat IPC: 0.575626 cumulative IPC: 0.44708 (Simulation time: 0 hr 34 min 7 sec) 
select_counter is 936
Heartbeat CPU 0 instructions: 66000001 cycles: 130721213 heartbeat IPC: 0.57416 cumulative IPC: 0.448854 (Simulation time: 0 hr 34 min 36 sec) 
select_counter is 923
Heartbeat CPU 0 instructions: 67000000 cycles: 132457285 heartbeat IPC: 0.576012 cumulative IPC: 0.450599 (Simulation time: 0 hr 35 min 3 sec) 
select_counter is 909
Heartbeat CPU 0 instructions: 68000000 cycles: 134121370 heartbeat IPC: 0.600931 cumulative IPC: 0.452551 (Simulation time: 0 hr 35 min 30 sec) 
select_counter is 901
Heartbeat CPU 0 instructions: 69000000 cycles: 135823241 heartbeat IPC: 0.587589 cumulative IPC: 0.45432 (Simulation time: 0 hr 35 min 58 sec) 
select_counter is 897
Heartbeat CPU 0 instructions: 70000001 cycles: 137564322 heartbeat IPC: 0.574356 cumulative IPC: 0.455908 (Simulation time: 0 hr 36 min 26 sec) 
select_counter is 886
Heartbeat CPU 0 instructions: 71000001 cycles: 139306419 heartbeat IPC: 0.574021 cumulative IPC: 0.457452 (Simulation time: 0 hr 36 min 52 sec) 
select_counter is 886
Heartbeat CPU 0 instructions: 72000000 cycles: 141028247 heartbeat IPC: 0.580778 cumulative IPC: 0.459024 (Simulation time: 0 hr 37 min 19 sec) 
select_counter is 883
Heartbeat CPU 0 instructions: 73000003 cycles: 142678189 heartbeat IPC: 0.606084 cumulative IPC: 0.460798 (Simulation time: 0 hr 37 min 47 sec) 
select_counter is 888
Heartbeat CPU 0 instructions: 74000002 cycles: 144410525 heartbeat IPC: 0.577255 cumulative IPC: 0.462256 (Simulation time: 0 hr 38 min 14 sec) 
select_counter is 897
Heartbeat CPU 0 instructions: 75000002 cycles: 146151549 heartbeat IPC: 0.574375 cumulative IPC: 0.463648 (Simulation time: 0 hr 38 min 44 sec) 
select_counter is 939
Heartbeat CPU 0 instructions: 76000000 cycles: 152384206 heartbeat IPC: 0.160445 cumulative IPC: 0.450742 (Simulation time: 0 hr 39 min 15 sec) 
select_counter is 532
Heartbeat CPU 0 instructions: 77000000 cycles: 155588580 heartbeat IPC: 0.312073 cumulative IPC: 0.447772 (Simulation time: 0 hr 39 min 42 sec) 
select_counter is 378
Heartbeat CPU 0 instructions: 78000002 cycles: 157284603 heartbeat IPC: 0.589616 cumulative IPC: 0.449362 (Simulation time: 0 hr 40 min 9 sec) 
select_counter is 353
Heartbeat CPU 0 instructions: 79000002 cycles: 159026219 heartbeat IPC: 0.574179 cumulative IPC: 0.450782 (Simulation time: 0 hr 40 min 38 sec) 
select_counter is 336
Heartbeat CPU 0 instructions: 80000000 cycles: 160764900 heartbeat IPC: 0.575148 cumulative IPC: 0.452179 (Simulation time: 0 hr 41 min 3 sec) 
select_counter is 323
Heartbeat CPU 0 instructions: 81000000 cycles: 162492858 heartbeat IPC: 0.578718 cumulative IPC: 0.453576 (Simulation time: 0 hr 41 min 30 sec) 
select_counter is 300
Heartbeat CPU 0 instructions: 82000003 cycles: 164139190 heartbeat IPC: 0.607413 cumulative IPC: 0.455177 (Simulation time: 0 hr 41 min 56 sec) 
select_counter is 296
Heartbeat CPU 0 instructions: 83000003 cycles: 165870822 heartbeat IPC: 0.57749 cumulative IPC: 0.456501 (Simulation time: 0 hr 42 min 23 sec) 
select_counter is 282
Heartbeat CPU 0 instructions: 84000000 cycles: 167610869 heartbeat IPC: 0.574695 cumulative IPC: 0.457774 (Simulation time: 0 hr 42 min 49 sec) 
select_counter is 277
Heartbeat CPU 0 instructions: 85000003 cycles: 169351401 heartbeat IPC: 0.574539 cumulative IPC: 0.459018 (Simulation time: 0 hr 43 min 14 sec) 
select_counter is 267
Heartbeat CPU 0 instructions: 86000000 cycles: 171046525 heartbeat IPC: 0.589926 cumulative IPC: 0.460362 (Simulation time: 0 hr 43 min 39 sec) 
select_counter is 269
Heartbeat CPU 0 instructions: 87000000 cycles: 172719884 heartbeat IPC: 0.5976 cumulative IPC: 0.461739 (Simulation time: 0 hr 44 min 5 sec) 
select_counter is 272
Heartbeat CPU 0 instructions: 88000000 cycles: 174486220 heartbeat IPC: 0.566144 cumulative IPC: 0.462833 (Simulation time: 0 hr 44 min 32 sec) 
select_counter is 285
Heartbeat CPU 0 instructions: 89000002 cycles: 179584733 heartbeat IPC: 0.196136 cumulative IPC: 0.455002 (Simulation time: 0 hr 45 min 4 sec) 
select_counter is 76
Heartbeat CPU 0 instructions: 90000002 cycles: 183838391 heartbeat IPC: 0.235092 cumulative IPC: 0.449743 (Simulation time: 0 hr 45 min 30 sec) 
select_counter is 968
Heartbeat CPU 0 instructions: 91000003 cycles: 185484645 heartbeat IPC: 0.60744 cumulative IPC: 0.451189 (Simulation time: 0 hr 45 min 54 sec) 
select_counter is 966
Heartbeat CPU 0 instructions: 92000000 cycles: 187211928 heartbeat IPC: 0.578942 cumulative IPC: 0.452406 (Simulation time: 0 hr 46 min 19 sec) 
select_counter is 964
Heartbeat CPU 0 instructions: 93000000 cycles: 188951096 heartbeat IPC: 0.574988 cumulative IPC: 0.453571 (Simulation time: 0 hr 46 min 46 sec) 
select_counter is 948
Heartbeat CPU 0 instructions: 94000003 cycles: 190692218 heartbeat IPC: 0.574344 cumulative IPC: 0.45471 (Simulation time: 0 hr 47 min 12 sec) 
select_counter is 945
Heartbeat CPU 0 instructions: 95000000 cycles: 192391175 heartbeat IPC: 0.588595 cumulative IPC: 0.45593 (Simulation time: 0 hr 47 min 35 sec) 
select_counter is 943
Heartbeat CPU 0 instructions: 96000000 cycles: 194061284 heartbeat IPC: 0.598763 cumulative IPC: 0.457198 (Simulation time: 0 hr 47 min 58 sec) 
select_counter is 931
Heartbeat CPU 0 instructions: 97000001 cycles: 195796634 heartbeat IPC: 0.576253 cumulative IPC: 0.458286 (Simulation time: 0 hr 48 min 20 sec) 
select_counter is 948
Heartbeat CPU 0 instructions: 98000000 cycles: 197537360 heartbeat IPC: 0.574472 cumulative IPC: 0.459342 (Simulation time: 0 hr 48 min 42 sec) 
select_counter is 954
Heartbeat CPU 0 instructions: 99000001 cycles: 199275666 heartbeat IPC: 0.575273 cumulative IPC: 0.460384 (Simulation time: 0 hr 49 min 4 sec) 
select_counter is 963
Heartbeat CPU 0 instructions: 100000000 cycles: 200943629 heartbeat IPC: 0.599533 cumulative IPC: 0.461575 (Simulation time: 0 hr 49 min 25 sec) 
select_counter is 969
Heartbeat CPU 0 instructions: 101000000 cycles: 202644319 heartbeat IPC: 0.587997 cumulative IPC: 0.462668 (Simulation time: 0 hr 49 min 44 sec) 
select_counter is 970
Heartbeat CPU 0 instructions: 102000002 cycles: 206668755 heartbeat IPC: 0.248483 cumulative IPC: 0.458373 (Simulation time: 0 hr 50 min 5 sec) 
select_counter is 901
Heartbeat CPU 0 instructions: 103000000 cycles: 212016542 heartbeat IPC: 0.186993 cumulative IPC: 0.45133 (Simulation time: 0 hr 50 min 25 sec) 
select_counter is 834
Heartbeat CPU 0 instructions: 104000000 cycles: 213719636 heartbeat IPC: 0.587167 cumulative IPC: 0.452444 (Simulation time: 0 hr 50 min 42 sec) 
select_counter is 834
Heartbeat CPU 0 instructions: 105000000 cycles: 215383420 heartbeat IPC: 0.60104 cumulative IPC: 0.453624 (Simulation time: 0 hr 50 min 59 sec) 
select_counter is 833
Heartbeat CPU 0 instructions: 106000002 cycles: 217116289 heartbeat IPC: 0.577079 cumulative IPC: 0.454637 (Simulation time: 0 hr 51 min 16 sec) 
select_counter is 835
Heartbeat CPU 0 instructions: 107000001 cycles: 218856521 heartbeat IPC: 0.574635 cumulative IPC: 0.455618 (Simulation time: 0 hr 51 min 32 sec) 
select_counter is 828
Heartbeat CPU 0 instructions: 108000000 cycles: 220592369 heartbeat IPC: 0.576087 cumulative IPC: 0.456592 (Simulation time: 0 hr 51 min 47 sec) 
select_counter is 818
Heartbeat CPU 0 instructions: 109000001 cycles: 222265884 heartbeat IPC: 0.597545 cumulative IPC: 0.457683 (Simulation time: 0 hr 52 min 3 sec) 
select_counter is 820
Heartbeat CPU 0 instructions: 110000003 cycles: 223960312 heartbeat IPC: 0.590171 cumulative IPC: 0.458713 (Simulation time: 0 hr 52 min 18 sec) 
select_counter is 844
Finished CPU 0 instructions: 100000000 cycles: 218001345 cummulative IPC: 0.458713 (Simulation time: 0 hr 52 min 18 sec) 

ChampSim completed all CPUs

Region of Interest Statistics

CPU 0 cummulative IPC: 0.458713 instructions: 100000000 cycles: 218001345
LLC TOTAL     ACCESS:    1166411  HIT:     350500  MISS:     815911
LLC LOAD      ACCESS:      24556  HIT:       1464  MISS:      23092
LLC RFO       ACCESS:     264086  HIT:      26097  MISS:     237989
LLC PREFETCH  ACCESS:     611657  HIT:     132837  MISS:     478820
LLC WRITEBACK ACCESS:     266112  HIT:     190102  MISS:      76010
Ship samples: 
18, 45, 95, 111, 142, 171, 199, 244, 280, 315, 351, 358, 410, 433, 475, 501, 515, 558, 596, 621, 642, 677, 713, 767, 795, 803, 836, 895, 900, 954, 984, 1022, 1046, 1073, 1099, 1135, 1153, 1205, 1233, 1262, 1298, 1334, 1361, 1385, 1422, 1452, 1474, 1517, 1562, 1578, 1610, 1633, 1670, 1712, 1753, 1772, 1807, 1840, 1879, 1908, 1950, 1980, 1993, 2047, 
Lime duel samples: 
4, 51, 79, 124, 137, 191, 205, 227, 269, 303, 350, 362, 399, 442, 451, 502, 526, 549, 607, 631, 660, 699, 719, 765, 772, 829, 837, 883, 926, 930, 986, 1000, 1053, 1085, 1101, 1125, 1158, 1204, 1226, 1268, 1292, 1330, 1349, 1396, 1428, 1444, 1495, 1513, 1567, 1595, 1600, 1648, 1695, 1707, 1754, 1789, 1803, 1826, 1856, 1914, 1925, 1952, 1984, 2026, 
Lime samples: 
4, 124, 205, 303, 399, 502, 607, 699, 772, 883, 986, 1085, 1158, 1268, 1349, 1444, 1567, 1648, 1754, 1826, 1925, 
Insertion Distribution: 
	LOAD 0 0 0 0 0 0 1656 1840 
	RFO 3273 0 0 0 0 0 4115 25687 
	PREF 0 8584 0 0 0 0 23429 62931 
	WRITEBACK 0 0 0 0 0 0 0 24355 
Total Prefetch Downgrades: 9945
