
*** ChampSim Multicore Out-of-Order Simulator ***

Warmup Instructions: 10000000
Simulation Instructions: 100000000
Configuration: 2
Number of CPUs: 1
LLC sets: 2048
LLC ways: 16
Off-chip DRAM Channels: 1 Width: 64-bit Data Rate: 1600 MT/s

CPU 0 runs /datasets/cs240c-wi22-a00-public/data/Assignment2-gz/soplex_205B.trace.gz
CPU 0 L1D next line prefetcher
CPU 0 L2C IP-based stride prefetcher
Heartbeat CPU 0 instructions: 1000000 cycles: 395620 heartbeat IPC: 2.52768 cumulative IPC: 2.52768 (Simulation time: 0 hr 0 min 24 sec) 
select_counter is 510
Heartbeat CPU 0 instructions: 2000002 cycles: 928709 heartbeat IPC: 1.87586 cumulative IPC: 2.15353 (Simulation time: 0 hr 0 min 54 sec) 
select_counter is 331
Heartbeat CPU 0 instructions: 3000000 cycles: 1400524 heartbeat IPC: 2.11947 cumulative IPC: 2.14206 (Simulation time: 0 hr 1 min 28 sec) 
select_counter is 194
Heartbeat CPU 0 instructions: 4000000 cycles: 1761834 heartbeat IPC: 2.76771 cumulative IPC: 2.27036 (Simulation time: 0 hr 1 min 55 sec) 
select_counter is 535
Heartbeat CPU 0 instructions: 5000003 cycles: 2205286 heartbeat IPC: 2.25504 cumulative IPC: 2.26728 (Simulation time: 0 hr 2 min 26 sec) 
select_counter is 748
Heartbeat CPU 0 instructions: 6000003 cycles: 2625360 heartbeat IPC: 2.38053 cumulative IPC: 2.2854 (Simulation time: 0 hr 2 min 57 sec) 
select_counter is 1020
Heartbeat CPU 0 instructions: 7000000 cycles: 3009795 heartbeat IPC: 2.60121 cumulative IPC: 2.32574 (Simulation time: 0 hr 3 min 21 sec) 
select_counter is 1023
Heartbeat CPU 0 instructions: 8000000 cycles: 3403744 heartbeat IPC: 2.5384 cumulative IPC: 2.35035 (Simulation time: 0 hr 3 min 44 sec) 
select_counter is 956
Heartbeat CPU 0 instructions: 9000003 cycles: 3929378 heartbeat IPC: 1.90247 cumulative IPC: 2.29044 (Simulation time: 0 hr 4 min 16 sec) 
select_counter is 474
Heartbeat CPU 0 instructions: 10000000 cycles: 4414719 heartbeat IPC: 2.0604 cumulative IPC: 2.26515 (Simulation time: 0 hr 4 min 50 sec) 
select_counter is 284

Warmup complete CPU 0 instructions: 10000004 cycles: 4414721 (Simulation time: 0 hr 4 min 50 sec) 

Heartbeat CPU 0 instructions: 11000001 cycles: 7014895 heartbeat IPC: 0.38459 cumulative IPC: 0.384588 (Simulation time: 0 hr 5 min 26 sec) 
select_counter is 95
Heartbeat CPU 0 instructions: 12000000 cycles: 9235755 heartbeat IPC: 0.450276 cumulative IPC: 0.414848 (Simulation time: 0 hr 6 min 5 sec) 
select_counter is 841
Heartbeat CPU 0 instructions: 13000000 cycles: 12910152 heartbeat IPC: 0.272153 cumulative IPC: 0.353131 (Simulation time: 0 hr 6 min 46 sec) 
select_counter is 544
Heartbeat CPU 0 instructions: 14000003 cycles: 14243682 heartbeat IPC: 0.749892 cumulative IPC: 0.406961 (Simulation time: 0 hr 7 min 10 sec) 
select_counter is 486
Heartbeat CPU 0 instructions: 15000000 cycles: 15983346 heartbeat IPC: 0.574822 cumulative IPC: 0.432203 (Simulation time: 0 hr 7 min 37 sec) 
select_counter is 441
Heartbeat CPU 0 instructions: 16000000 cycles: 19134322 heartbeat IPC: 0.317362 cumulative IPC: 0.407619 (Simulation time: 0 hr 8 min 17 sec) 
select_counter is 131
Heartbeat CPU 0 instructions: 17000001 cycles: 22594984 heartbeat IPC: 0.288962 cumulative IPC: 0.385033 (Simulation time: 0 hr 9 min 8 sec) 
select_counter is 926
Heartbeat CPU 0 instructions: 18000000 cycles: 29225302 heartbeat IPC: 0.150822 cumulative IPC: 0.322443 (Simulation time: 0 hr 9 min 55 sec) 
select_counter is 1022
Heartbeat CPU 0 instructions: 19000001 cycles: 33769784 heartbeat IPC: 0.220047 cumulative IPC: 0.306591 (Simulation time: 0 hr 10 min 45 sec) 
select_counter is 990
Heartbeat CPU 0 instructions: 20000000 cycles: 36005723 heartbeat IPC: 0.447239 cumulative IPC: 0.316546 (Simulation time: 0 hr 11 min 30 sec) 
select_counter is 1020
Heartbeat CPU 0 instructions: 21000001 cycles: 40657539 heartbeat IPC: 0.21497 cumulative IPC: 0.303508 (Simulation time: 0 hr 12 min 15 sec) 
select_counter is 1013
Heartbeat CPU 0 instructions: 22000001 cycles: 44830444 heartbeat IPC: 0.239641 cumulative IPC: 0.296914 (Simulation time: 0 hr 12 min 59 sec) 
select_counter is 1023
Heartbeat CPU 0 instructions: 23000002 cycles: 48051853 heartbeat IPC: 0.310423 cumulative IPC: 0.297911 (Simulation time: 0 hr 13 min 43 sec) 
select_counter is 1019
Heartbeat CPU 0 instructions: 24000000 cycles: 51890021 heartbeat IPC: 0.26054 cumulative IPC: 0.29489 (Simulation time: 0 hr 14 min 26 sec) 
select_counter is 1022
Heartbeat CPU 0 instructions: 25000000 cycles: 55800823 heartbeat IPC: 0.255702 cumulative IPC: 0.291908 (Simulation time: 0 hr 15 min 5 sec) 
select_counter is 1009
Heartbeat CPU 0 instructions: 26000002 cycles: 59566351 heartbeat IPC: 0.265568 cumulative IPC: 0.290109 (Simulation time: 0 hr 15 min 46 sec) 
select_counter is 1019
Heartbeat CPU 0 instructions: 27000000 cycles: 62148776 heartbeat IPC: 0.387232 cumulative IPC: 0.294454 (Simulation time: 0 hr 16 min 18 sec) 
select_counter is 982
Heartbeat CPU 0 instructions: 28000000 cycles: 65809056 heartbeat IPC: 0.273203 cumulative IPC: 0.293187 (Simulation time: 0 hr 17 min 0 sec) 
select_counter is 1020
Heartbeat CPU 0 instructions: 29000000 cycles: 67844943 heartbeat IPC: 0.491186 cumulative IPC: 0.299542 (Simulation time: 0 hr 17 min 38 sec) 
select_counter is 1023
Heartbeat CPU 0 instructions: 30000003 cycles: 68764951 heartbeat IPC: 1.08695 cumulative IPC: 0.310799 (Simulation time: 0 hr 18 min 6 sec) 
select_counter is 1013
Heartbeat CPU 0 instructions: 31000000 cycles: 70099389 heartbeat IPC: 0.749377 cumulative IPC: 0.319709 (Simulation time: 0 hr 18 min 38 sec) 
select_counter is 1021
Heartbeat CPU 0 instructions: 32000000 cycles: 73265018 heartbeat IPC: 0.315893 cumulative IPC: 0.319534 (Simulation time: 0 hr 19 min 16 sec) 
select_counter is 1022
Heartbeat CPU 0 instructions: 33000000 cycles: 76265982 heartbeat IPC: 0.333226 cumulative IPC: 0.320106 (Simulation time: 0 hr 19 min 59 sec) 
select_counter is 581
Heartbeat CPU 0 instructions: 34000002 cycles: 78004991 heartbeat IPC: 0.575041 cumulative IPC: 0.32613 (Simulation time: 0 hr 20 min 33 sec) 
select_counter is 587
Heartbeat CPU 0 instructions: 35000003 cycles: 80705332 heartbeat IPC: 0.370324 cumulative IPC: 0.327694 (Simulation time: 0 hr 21 min 10 sec) 
select_counter is 250
Heartbeat CPU 0 instructions: 36000000 cycles: 83103371 heartbeat IPC: 0.417006 cumulative IPC: 0.330416 (Simulation time: 0 hr 21 min 48 sec) 
select_counter is 591
Heartbeat CPU 0 instructions: 37000000 cycles: 86596566 heartbeat IPC: 0.286271 cumulative IPC: 0.32854 (Simulation time: 0 hr 22 min 27 sec) 
select_counter is 966
Heartbeat CPU 0 instructions: 38000002 cycles: 87892763 heartbeat IPC: 0.771489 cumulative IPC: 0.335418 (Simulation time: 0 hr 22 min 51 sec) 
select_counter is 921
Heartbeat CPU 0 instructions: 39000003 cycles: 89871702 heartbeat IPC: 0.505322 cumulative IPC: 0.339352 (Simulation time: 0 hr 23 min 21 sec) 
select_counter is 791
Heartbeat CPU 0 instructions: 40000000 cycles: 93484400 heartbeat IPC: 0.276801 cumulative IPC: 0.336815 (Simulation time: 0 hr 24 min 6 sec) 
select_counter is 337
Heartbeat CPU 0 instructions: 41000000 cycles: 96739986 heartbeat IPC: 0.307164 cumulative IPC: 0.335769 (Simulation time: 0 hr 24 min 44 sec) 
select_counter is 961
Heartbeat CPU 0 instructions: 42000001 cycles: 98576446 heartbeat IPC: 0.544526 cumulative IPC: 0.339841 (Simulation time: 0 hr 25 min 17 sec) 
select_counter is 812
Heartbeat CPU 0 instructions: 43000001 cycles: 102031953 heartbeat IPC: 0.289393 cumulative IPC: 0.338055 (Simulation time: 0 hr 25 min 59 sec) 
select_counter is 979
Heartbeat CPU 0 instructions: 44000000 cycles: 104272825 heartbeat IPC: 0.446254 cumulative IPC: 0.340483 (Simulation time: 0 hr 26 min 29 sec) 
select_counter is 691
Heartbeat CPU 0 instructions: 45000001 cycles: 105556461 heartbeat IPC: 0.779038 cumulative IPC: 0.346049 (Simulation time: 0 hr 26 min 53 sec) 
select_counter is 602
Heartbeat CPU 0 instructions: 46000002 cycles: 108378578 heartbeat IPC: 0.354344 cumulative IPC: 0.346274 (Simulation time: 0 hr 27 min 30 sec) 
select_counter is 575
Heartbeat CPU 0 instructions: 47000000 cycles: 111768036 heartbeat IPC: 0.295032 cumulative IPC: 0.344656 (Simulation time: 0 hr 28 min 12 sec) 
select_counter is 470
Heartbeat CPU 0 instructions: 48000000 cycles: 114665383 heartbeat IPC: 0.345143 cumulative IPC: 0.344669 (Simulation time: 0 hr 28 min 53 sec) 
select_counter is 270
Heartbeat CPU 0 instructions: 49000001 cycles: 116621507 heartbeat IPC: 0.511216 cumulative IPC: 0.347573 (Simulation time: 0 hr 29 min 23 sec) 
select_counter is 105
Heartbeat CPU 0 instructions: 50000002 cycles: 119874465 heartbeat IPC: 0.307413 cumulative IPC: 0.346441 (Simulation time: 0 hr 30 min 5 sec) 
select_counter is 530
Heartbeat CPU 0 instructions: 51000003 cycles: 122315461 heartbeat IPC: 0.409669 cumulative IPC: 0.34775 (Simulation time: 0 hr 30 min 37 sec) 
select_counter is 290
Heartbeat CPU 0 instructions: 52000000 cycles: 123593848 heartbeat IPC: 0.782233 cumulative IPC: 0.352411 (Simulation time: 0 hr 31 min 1 sec) 
select_counter is 243
Heartbeat CPU 0 instructions: 53000003 cycles: 126409286 heartbeat IPC: 0.355186 cumulative IPC: 0.352475 (Simulation time: 0 hr 31 min 33 sec) 
select_counter is 161
Heartbeat CPU 0 instructions: 54000000 cycles: 129606373 heartbeat IPC: 0.312784 cumulative IPC: 0.351461 (Simulation time: 0 hr 32 min 13 sec) 
select_counter is 932
Heartbeat CPU 0 instructions: 55000001 cycles: 132614002 heartbeat IPC: 0.332488 cumulative IPC: 0.351016 (Simulation time: 0 hr 32 min 53 sec) 
select_counter is 782
Heartbeat CPU 0 instructions: 56000000 cycles: 134493757 heartbeat IPC: 0.531984 cumulative IPC: 0.353631 (Simulation time: 0 hr 33 min 25 sec) 
select_counter is 599
Heartbeat CPU 0 instructions: 57000000 cycles: 137929322 heartbeat IPC: 0.291073 cumulative IPC: 0.352021 (Simulation time: 0 hr 34 min 14 sec) 
select_counter is 148
Heartbeat CPU 0 instructions: 58000000 cycles: 140171498 heartbeat IPC: 0.445995 cumulative IPC: 0.353573 (Simulation time: 0 hr 34 min 43 sec) 
select_counter is 1010
Heartbeat CPU 0 instructions: 59000001 cycles: 141444550 heartbeat IPC: 0.785515 cumulative IPC: 0.357586 (Simulation time: 0 hr 35 min 6 sec) 
select_counter is 960
Heartbeat CPU 0 instructions: 60000000 cycles: 144285917 heartbeat IPC: 0.351943 cumulative IPC: 0.357472 (Simulation time: 0 hr 35 min 41 sec) 
select_counter is 1014
Heartbeat CPU 0 instructions: 61000003 cycles: 147701775 heartbeat IPC: 0.292753 cumulative IPC: 0.355929 (Simulation time: 0 hr 36 min 24 sec) 
select_counter is 892
Heartbeat CPU 0 instructions: 62000002 cycles: 150843099 heartbeat IPC: 0.318337 cumulative IPC: 0.355122 (Simulation time: 0 hr 37 min 8 sec) 
select_counter is 826
Heartbeat CPU 0 instructions: 63000001 cycles: 152556685 heartbeat IPC: 0.583571 cumulative IPC: 0.357765 (Simulation time: 0 hr 37 min 41 sec) 
select_counter is 623
Heartbeat CPU 0 instructions: 64000000 cycles: 156291089 heartbeat IPC: 0.26778 cumulative IPC: 0.355552 (Simulation time: 0 hr 38 min 22 sec) 
select_counter is 79
Heartbeat CPU 0 instructions: 65000001 cycles: 158173810 heartbeat IPC: 0.531147 cumulative IPC: 0.357702 (Simulation time: 0 hr 38 min 48 sec) 
select_counter is 976
Heartbeat CPU 0 instructions: 66000000 cycles: 159444692 heartbeat IPC: 0.786854 cumulative IPC: 0.36122 (Simulation time: 0 hr 39 min 9 sec) 
select_counter is 947
Heartbeat CPU 0 instructions: 67000003 cycles: 162324640 heartbeat IPC: 0.34723 cumulative IPC: 0.360965 (Simulation time: 0 hr 39 min 41 sec) 
select_counter is 914
Heartbeat CPU 0 instructions: 68000000 cycles: 165816762 heartbeat IPC: 0.286358 cumulative IPC: 0.359351 (Simulation time: 0 hr 40 min 22 sec) 
select_counter is 580
Heartbeat CPU 0 instructions: 69000001 cycles: 168574305 heartbeat IPC: 0.362642 cumulative IPC: 0.359406 (Simulation time: 0 hr 40 min 57 sec) 
select_counter is 488
Heartbeat CPU 0 instructions: 70000000 cycles: 170459995 heartbeat IPC: 0.530309 cumulative IPC: 0.361347 (Simulation time: 0 hr 41 min 28 sec) 
select_counter is 317
Heartbeat CPU 0 instructions: 71000001 cycles: 173883111 heartbeat IPC: 0.292132 cumulative IPC: 0.359949 (Simulation time: 0 hr 42 min 9 sec) 
select_counter is 749
Heartbeat CPU 0 instructions: 72000000 cycles: 176131930 heartbeat IPC: 0.444677 cumulative IPC: 0.361059 (Simulation time: 0 hr 42 min 34 sec) 
select_counter is 564
Heartbeat CPU 0 instructions: 73000000 cycles: 177410196 heartbeat IPC: 0.78231 cumulative IPC: 0.364171 (Simulation time: 0 hr 42 min 58 sec) 
select_counter is 515
Heartbeat CPU 0 instructions: 74000001 cycles: 180291564 heartbeat IPC: 0.347058 cumulative IPC: 0.363891 (Simulation time: 0 hr 43 min 30 sec) 
select_counter is 359
Heartbeat CPU 0 instructions: 75000003 cycles: 183498689 heartbeat IPC: 0.311806 cumulative IPC: 0.362958 (Simulation time: 0 hr 44 min 7 sec) 
select_counter is 1004
Heartbeat CPU 0 instructions: 76000000 cycles: 186654099 heartbeat IPC: 0.316915 cumulative IPC: 0.362161 (Simulation time: 0 hr 44 min 42 sec) 
select_counter is 719
Heartbeat CPU 0 instructions: 77000000 cycles: 188321953 heartbeat IPC: 0.599573 cumulative IPC: 0.364314 (Simulation time: 0 hr 45 min 12 sec) 
select_counter is 440
Heartbeat CPU 0 instructions: 78000000 cycles: 192192130 heartbeat IPC: 0.258386 cumulative IPC: 0.362131 (Simulation time: 0 hr 45 min 53 sec) 
select_counter is 667
Heartbeat CPU 0 instructions: 79000002 cycles: 193988601 heartbeat IPC: 0.556648 cumulative IPC: 0.363974 (Simulation time: 0 hr 46 min 17 sec) 
select_counter is 581
Heartbeat CPU 0 instructions: 80000000 cycles: 195261470 heartbeat IPC: 0.785625 cumulative IPC: 0.366786 (Simulation time: 0 hr 46 min 36 sec) 
select_counter is 551
Heartbeat CPU 0 instructions: 81000000 cycles: 198146334 heartbeat IPC: 0.346637 cumulative IPC: 0.366486 (Simulation time: 0 hr 47 min 7 sec) 
select_counter is 586
Heartbeat CPU 0 instructions: 82000000 cycles: 201537310 heartbeat IPC: 0.2949 cumulative IPC: 0.365255 (Simulation time: 0 hr 47 min 43 sec) 
select_counter is 260
Heartbeat CPU 0 instructions: 83000000 cycles: 204830910 heartbeat IPC: 0.303619 cumulative IPC: 0.364242 (Simulation time: 0 hr 48 min 15 sec) 
select_counter is 104
Heartbeat CPU 0 instructions: 84000000 cycles: 206496196 heartbeat IPC: 0.600497 cumulative IPC: 0.366189 (Simulation time: 0 hr 48 min 40 sec) 
select_counter is 825
Heartbeat CPU 0 instructions: 85000000 cycles: 210439526 heartbeat IPC: 0.253593 cumulative IPC: 0.364034 (Simulation time: 0 hr 49 min 14 sec) 
select_counter is 337
Heartbeat CPU 0 instructions: 86000002 cycles: 211880979 heartbeat IPC: 0.693746 cumulative IPC: 0.366325 (Simulation time: 0 hr 49 min 28 sec) 
select_counter is 274
Heartbeat CPU 0 instructions: 87000002 cycles: 213145212 heartbeat IPC: 0.790993 cumulative IPC: 0.368897 (Simulation time: 0 hr 49 min 44 sec) 
select_counter is 270
Heartbeat CPU 0 instructions: 88000000 cycles: 216039421 heartbeat IPC: 0.345517 cumulative IPC: 0.368577 (Simulation time: 0 hr 50 min 7 sec) 
select_counter is 217
Heartbeat CPU 0 instructions: 89000003 cycles: 219581283 heartbeat IPC: 0.282338 cumulative IPC: 0.367157 (Simulation time: 0 hr 50 min 33 sec) 
select_counter is 855
Heartbeat CPU 0 instructions: 90000001 cycles: 222636809 heartbeat IPC: 0.327275 cumulative IPC: 0.366599 (Simulation time: 0 hr 50 min 53 sec) 
select_counter is 746
Heartbeat CPU 0 instructions: 91000003 cycles: 224577508 heartbeat IPC: 0.515279 cumulative IPC: 0.36791 (Simulation time: 0 hr 51 min 13 sec) 
select_counter is 354
Heartbeat CPU 0 instructions: 92000000 cycles: 228301065 heartbeat IPC: 0.26856 cumulative IPC: 0.366257 (Simulation time: 0 hr 51 min 33 sec) 
select_counter is 996
Heartbeat CPU 0 instructions: 93000000 cycles: 229584237 heartbeat IPC: 0.779319 cumulative IPC: 0.368611 (Simulation time: 0 hr 51 min 43 sec) 
select_counter is 934
Heartbeat CPU 0 instructions: 94000000 cycles: 230979342 heartbeat IPC: 0.716792 cumulative IPC: 0.370755 (Simulation time: 0 hr 51 min 56 sec) 
select_counter is 894
Heartbeat CPU 0 instructions: 95000002 cycles: 233955436 heartbeat IPC: 0.336012 cumulative IPC: 0.370305 (Simulation time: 0 hr 52 min 14 sec) 
select_counter is 935
Heartbeat CPU 0 instructions: 96000000 cycles: 237166012 heartbeat IPC: 0.31147 cumulative IPC: 0.369493 (Simulation time: 0 hr 52 min 33 sec) 
select_counter is 717
Heartbeat CPU 0 instructions: 97000003 cycles: 239829719 heartbeat IPC: 0.375418 cumulative IPC: 0.36956 (Simulation time: 0 hr 52 min 48 sec) 
select_counter is 538
Heartbeat CPU 0 instructions: 98000003 cycles: 242183929 heartbeat IPC: 0.424771 cumulative IPC: 0.370107 (Simulation time: 0 hr 53 min 4 sec) 
select_counter is 87
Heartbeat CPU 0 instructions: 99000000 cycles: 245506568 heartbeat IPC: 0.300965 cumulative IPC: 0.369154 (Simulation time: 0 hr 53 min 20 sec) 
select_counter is 658
Heartbeat CPU 0 instructions: 100000000 cycles: 246796500 heartbeat IPC: 0.775235 cumulative IPC: 0.371315 (Simulation time: 0 hr 53 min 29 sec) 
select_counter is 592
Heartbeat CPU 0 instructions: 101000003 cycles: 248735039 heartbeat IPC: 0.515854 cumulative IPC: 0.372462 (Simulation time: 0 hr 53 min 40 sec) 
select_counter is 470
Heartbeat CPU 0 instructions: 102000002 cycles: 251937422 heartbeat IPC: 0.312267 cumulative IPC: 0.371683 (Simulation time: 0 hr 53 min 56 sec) 
select_counter is 461
Heartbeat CPU 0 instructions: 103000000 cycles: 254147311 heartbeat IPC: 0.452511 cumulative IPC: 0.372398 (Simulation time: 0 hr 54 min 11 sec) 
select_counter is 516
Heartbeat CPU 0 instructions: 104000000 cycles: 263033847 heartbeat IPC: 0.11253 cumulative IPC: 0.363469 (Simulation time: 0 hr 54 min 29 sec) 
select_counter is 765
Heartbeat CPU 0 instructions: 105000000 cycles: 265187052 heartbeat IPC: 0.464424 cumulative IPC: 0.364302 (Simulation time: 0 hr 54 min 41 sec) 
select_counter is 437
Heartbeat CPU 0 instructions: 106000002 cycles: 269246571 heartbeat IPC: 0.246335 cumulative IPC: 0.362494 (Simulation time: 0 hr 54 min 53 sec) 
select_counter is 468
Heartbeat CPU 0 instructions: 107000003 cycles: 273729498 heartbeat IPC: 0.223069 cumulative IPC: 0.360173 (Simulation time: 0 hr 55 min 5 sec) 
select_counter is 473
Heartbeat CPU 0 instructions: 108000000 cycles: 277131653 heartbeat IPC: 0.29393 cumulative IPC: 0.359347 (Simulation time: 0 hr 55 min 15 sec) 
select_counter is 459
Heartbeat CPU 0 instructions: 109000000 cycles: 280319230 heartbeat IPC: 0.313718 cumulative IPC: 0.35882 (Simulation time: 0 hr 55 min 25 sec) 
select_counter is 418
Heartbeat CPU 0 instructions: 110000003 cycles: 283884438 heartbeat IPC: 0.280489 cumulative IPC: 0.357821 (Simulation time: 0 hr 55 min 34 sec) 
select_counter is 272
Finished CPU 0 instructions: 100000003 cycles: 279469718 cummulative IPC: 0.357821 (Simulation time: 0 hr 55 min 34 sec) 

ChampSim completed all CPUs

Region of Interest Statistics

CPU 0 cummulative IPC: 0.357821 instructions: 100000003 cycles: 279469718
LLC TOTAL     ACCESS:    8731211  HIT:    4253383  MISS:    4477828
LLC LOAD      ACCESS:    2231448  HIT:     974104  MISS:    1257344
LLC RFO       ACCESS:     871526  HIT:     349414  MISS:     522112
LLC PREFETCH  ACCESS:    3453370  HIT:    1339205  MISS:    2114165
LLC WRITEBACK ACCESS:    2174867  HIT:    1590660  MISS:     584207
Ship samples: 
15, 52, 69, 102, 141, 171, 211, 253, 287, 296, 341, 366, 390, 420, 462, 508, 540, 545, 598, 619, 653, 693, 716, 743, 786, 806, 842, 882, 915, 949, 989, 1023, 1043, 1060, 1097, 1142, 1157, 1185, 1247, 1255, 1284, 1330, 1369, 1406, 1412, 1468, 1477, 1519, 1561, 1575, 1630, 1656, 1673, 1717, 1729, 1786, 1801, 1845, 1872, 1903, 1926, 1973, 1990, 2019, 
Lime duel samples: 
20, 53, 82, 110, 154, 176, 194, 237, 274, 316, 350, 369, 398, 433, 455, 486, 541, 560, 606, 636, 647, 698, 714, 756, 789, 828, 832, 876, 911, 928, 975, 1009, 1037, 1085, 1103, 1131, 1174, 1195, 1234, 1256, 1297, 1325, 1359, 1380, 1420, 1459, 1473, 1531, 1560, 1587, 1602, 1661, 1667, 1721, 1736, 1788, 1798, 1836, 1858, 1907, 1940, 1963, 1995, 2020, 
Lime samples: 
20, 110, 194, 316, 398, 486, 606, 698, 789, 876, 975, 1085, 1174, 1256, 1359, 1459, 1560, 1661, 1736, 1836, 1940, 
Insertion Distribution: 
	LOAD 182502 0 0 0 0 0 50845 326825 
	RFO 74307 0 0 0 0 0 38885 144060 
	PREF 0 43251 0 0 0 0 124493 812213 
	WRITEBACK 0 0 0 0 0 0 0 266257 
Total Prefetch Downgrades: 60429
