
*** ChampSim Multicore Out-of-Order Simulator ***

Warmup Instructions: 10000000
Simulation Instructions: 100000000
Configuration: 2
Number of CPUs: 1
LLC sets: 2048
LLC ways: 16
Off-chip DRAM Channels: 1 Width: 64-bit Data Rate: 1600 MT/s

CPU 0 runs /datasets/cs240c-wi22-a00-public/data/Assignment2-gz/calculix_3812B.trace.gz
CPU 0 L1D next line prefetcher
CPU 0 L2C IP-based stride prefetcher
Heartbeat CPU 0 instructions: 1000001 cycles: 478688 heartbeat IPC: 2.08905 cumulative IPC: 2.08905 (Simulation time: 0 hr 0 min 24 sec) 
select_counter is 283
Heartbeat CPU 0 instructions: 2000002 cycles: 956482 heartbeat IPC: 2.09295 cumulative IPC: 2.091 (Simulation time: 0 hr 0 min 53 sec) 
select_counter is 162
Heartbeat CPU 0 instructions: 3000002 cycles: 1434998 heartbeat IPC: 2.08979 cumulative IPC: 2.0906 (Simulation time: 0 hr 1 min 21 sec) 
select_counter is 147
Heartbeat CPU 0 instructions: 4000000 cycles: 1907481 heartbeat IPC: 2.11647 cumulative IPC: 2.09701 (Simulation time: 0 hr 1 min 47 sec) 
select_counter is 147
Heartbeat CPU 0 instructions: 5000000 cycles: 2356263 heartbeat IPC: 2.22825 cumulative IPC: 2.122 (Simulation time: 0 hr 2 min 11 sec) 
select_counter is 754
Heartbeat CPU 0 instructions: 6000003 cycles: 2761642 heartbeat IPC: 2.46683 cumulative IPC: 2.17262 (Simulation time: 0 hr 2 min 31 sec) 
select_counter is 739
Heartbeat CPU 0 instructions: 7000002 cycles: 3154749 heartbeat IPC: 2.54383 cumulative IPC: 2.21888 (Simulation time: 0 hr 2 min 50 sec) 
select_counter is 720
Heartbeat CPU 0 instructions: 8000000 cycles: 3547888 heartbeat IPC: 2.54362 cumulative IPC: 2.25486 (Simulation time: 0 hr 3 min 11 sec) 
select_counter is 710
Heartbeat CPU 0 instructions: 9000000 cycles: 3940874 heartbeat IPC: 2.54462 cumulative IPC: 2.28376 (Simulation time: 0 hr 3 min 30 sec) 
select_counter is 701
Heartbeat CPU 0 instructions: 10000003 cycles: 4333970 heartbeat IPC: 2.54392 cumulative IPC: 2.30735 (Simulation time: 0 hr 3 min 50 sec) 
select_counter is 679

Warmup complete CPU 0 instructions: 10000003 cycles: 4333970 (Simulation time: 0 hr 3 min 50 sec) 

Heartbeat CPU 0 instructions: 11000001 cycles: 4774681 heartbeat IPC: 2.26906 cumulative IPC: 2.26906 (Simulation time: 0 hr 4 min 16 sec) 
select_counter is 666
Heartbeat CPU 0 instructions: 12000000 cycles: 5211392 heartbeat IPC: 2.28984 cumulative IPC: 2.2794 (Simulation time: 0 hr 4 min 41 sec) 
select_counter is 666
Heartbeat CPU 0 instructions: 13000002 cycles: 5647847 heartbeat IPC: 2.29119 cumulative IPC: 2.28332 (Simulation time: 0 hr 5 min 4 sec) 
select_counter is 667
Heartbeat CPU 0 instructions: 14000000 cycles: 6445299 heartbeat IPC: 1.25399 cumulative IPC: 1.89454 (Simulation time: 0 hr 5 min 30 sec) 
select_counter is 650
Heartbeat CPU 0 instructions: 15000003 cycles: 6993491 heartbeat IPC: 1.82418 cumulative IPC: 1.88004 (Simulation time: 0 hr 5 min 55 sec) 
select_counter is 483
Heartbeat CPU 0 instructions: 16000000 cycles: 7478661 heartbeat IPC: 2.06113 cumulative IPC: 1.90798 (Simulation time: 0 hr 6 min 20 sec) 
select_counter is 267
Heartbeat CPU 0 instructions: 17000001 cycles: 7939795 heartbeat IPC: 2.16857 cumulative IPC: 1.9413 (Simulation time: 0 hr 6 min 43 sec) 
select_counter is 68
Heartbeat CPU 0 instructions: 18000001 cycles: 8397147 heartbeat IPC: 2.1865 cumulative IPC: 1.9689 (Simulation time: 0 hr 7 min 7 sec) 
select_counter is 949
Heartbeat CPU 0 instructions: 19000001 cycles: 8851409 heartbeat IPC: 2.20137 cumulative IPC: 1.99228 (Simulation time: 0 hr 7 min 30 sec) 
select_counter is 792
Heartbeat CPU 0 instructions: 20000000 cycles: 9426189 heartbeat IPC: 1.73979 cumulative IPC: 1.96378 (Simulation time: 0 hr 7 min 54 sec) 
select_counter is 665
Heartbeat CPU 0 instructions: 21000003 cycles: 9948578 heartbeat IPC: 1.91429 cumulative IPC: 1.95918 (Simulation time: 0 hr 8 min 17 sec) 
select_counter is 485
Heartbeat CPU 0 instructions: 22000000 cycles: 10430487 heartbeat IPC: 2.07507 cumulative IPC: 1.96834 (Simulation time: 0 hr 8 min 44 sec) 
select_counter is 298
Heartbeat CPU 0 instructions: 23000001 cycles: 10896196 heartbeat IPC: 2.14727 cumulative IPC: 1.98103 (Simulation time: 0 hr 9 min 11 sec) 
select_counter is 112
Heartbeat CPU 0 instructions: 24000000 cycles: 11357399 heartbeat IPC: 2.16824 cumulative IPC: 1.99333 (Simulation time: 0 hr 9 min 34 sec) 
select_counter is 938
Heartbeat CPU 0 instructions: 25000003 cycles: 11889578 heartbeat IPC: 1.87907 cumulative IPC: 1.98528 (Simulation time: 0 hr 9 min 58 sec) 
select_counter is 863
Heartbeat CPU 0 instructions: 26000003 cycles: 12436824 heartbeat IPC: 1.82733 cumulative IPC: 1.97461 (Simulation time: 0 hr 10 min 24 sec) 
select_counter is 858
Heartbeat CPU 0 instructions: 27000000 cycles: 12971243 heartbeat IPC: 1.87119 cumulative IPC: 1.96821 (Simulation time: 0 hr 10 min 50 sec) 
select_counter is 848
Heartbeat CPU 0 instructions: 28000000 cycles: 13610586 heartbeat IPC: 1.56411 cumulative IPC: 1.94036 (Simulation time: 0 hr 11 min 16 sec) 
select_counter is 847
Heartbeat CPU 0 instructions: 29000002 cycles: 14086958 heartbeat IPC: 2.0992 cumulative IPC: 1.94812 (Simulation time: 0 hr 11 min 41 sec) 
select_counter is 850
Heartbeat CPU 0 instructions: 30000001 cycles: 14637610 heartbeat IPC: 1.81603 cumulative IPC: 1.94106 (Simulation time: 0 hr 12 min 6 sec) 
select_counter is 846
Heartbeat CPU 0 instructions: 31000001 cycles: 15184404 heartbeat IPC: 1.82884 cumulative IPC: 1.93541 (Simulation time: 0 hr 12 min 32 sec) 
select_counter is 849
Heartbeat CPU 0 instructions: 32000000 cycles: 15908228 heartbeat IPC: 1.38155 cumulative IPC: 1.90077 (Simulation time: 0 hr 13 min 0 sec) 
select_counter is 843
Heartbeat CPU 0 instructions: 33000003 cycles: 16612836 heartbeat IPC: 1.41923 cumulative IPC: 1.87314 (Simulation time: 0 hr 13 min 25 sec) 
select_counter is 833
Heartbeat CPU 0 instructions: 34000000 cycles: 17312731 heartbeat IPC: 1.42878 cumulative IPC: 1.84917 (Simulation time: 0 hr 13 min 54 sec) 
select_counter is 825
Heartbeat CPU 0 instructions: 35000000 cycles: 17985930 heartbeat IPC: 1.48544 cumulative IPC: 1.83124 (Simulation time: 0 hr 14 min 22 sec) 
select_counter is 821
Heartbeat CPU 0 instructions: 36000000 cycles: 18627068 heartbeat IPC: 1.55973 cumulative IPC: 1.81906 (Simulation time: 0 hr 14 min 51 sec) 
select_counter is 821
Heartbeat CPU 0 instructions: 37000002 cycles: 19252885 heartbeat IPC: 1.59791 cumulative IPC: 1.80978 (Simulation time: 0 hr 15 min 17 sec) 
select_counter is 821
Heartbeat CPU 0 instructions: 38000003 cycles: 19887892 heartbeat IPC: 1.57479 cumulative IPC: 1.80019 (Simulation time: 0 hr 15 min 45 sec) 
select_counter is 822
Heartbeat CPU 0 instructions: 39000003 cycles: 20662880 heartbeat IPC: 1.29034 cumulative IPC: 1.77599 (Simulation time: 0 hr 16 min 7 sec) 
select_counter is 997
Heartbeat CPU 0 instructions: 40000000 cycles: 21507083 heartbeat IPC: 1.18455 cumulative IPC: 1.74692 (Simulation time: 0 hr 16 min 34 sec) 
select_counter is 1022
Heartbeat CPU 0 instructions: 41000000 cycles: 22441636 heartbeat IPC: 1.07003 cumulative IPC: 1.71198 (Simulation time: 0 hr 16 min 59 sec) 
select_counter is 1020
Heartbeat CPU 0 instructions: 42000001 cycles: 23043063 heartbeat IPC: 1.66271 cumulative IPC: 1.7104 (Simulation time: 0 hr 17 min 28 sec) 
select_counter is 1019
Heartbeat CPU 0 instructions: 43000000 cycles: 23664790 heartbeat IPC: 1.60842 cumulative IPC: 1.70712 (Simulation time: 0 hr 17 min 54 sec) 
select_counter is 1021
Heartbeat CPU 0 instructions: 44000000 cycles: 24341547 heartbeat IPC: 1.47764 cumulative IPC: 1.69936 (Simulation time: 0 hr 18 min 25 sec) 
select_counter is 1021
Heartbeat CPU 0 instructions: 45000002 cycles: 25015956 heartbeat IPC: 1.48278 cumulative IPC: 1.69229 (Simulation time: 0 hr 18 min 53 sec) 
select_counter is 1021
Heartbeat CPU 0 instructions: 46000002 cycles: 25746481 heartbeat IPC: 1.36888 cumulative IPC: 1.68126 (Simulation time: 0 hr 19 min 20 sec) 
select_counter is 1021
Heartbeat CPU 0 instructions: 47000002 cycles: 26595427 heartbeat IPC: 1.17793 cumulative IPC: 1.66207 (Simulation time: 0 hr 19 min 45 sec) 
select_counter is 1023
Heartbeat CPU 0 instructions: 48000000 cycles: 27046697 heartbeat IPC: 2.21596 cumulative IPC: 1.67307 (Simulation time: 0 hr 20 min 7 sec) 
select_counter is 1023
Heartbeat CPU 0 instructions: 49000000 cycles: 27497888 heartbeat IPC: 2.21636 cumulative IPC: 1.68365 (Simulation time: 0 hr 20 min 28 sec) 
select_counter is 1023
Heartbeat CPU 0 instructions: 50000000 cycles: 27976232 heartbeat IPC: 2.09055 cumulative IPC: 1.69189 (Simulation time: 0 hr 20 min 51 sec) 
select_counter is 1023
Heartbeat CPU 0 instructions: 51000000 cycles: 28559480 heartbeat IPC: 1.71454 cumulative IPC: 1.69243 (Simulation time: 0 hr 21 min 17 sec) 
select_counter is 1023
Heartbeat CPU 0 instructions: 52000000 cycles: 29110865 heartbeat IPC: 1.81361 cumulative IPC: 1.69513 (Simulation time: 0 hr 21 min 38 sec) 
select_counter is 1023
Heartbeat CPU 0 instructions: 53000000 cycles: 29584278 heartbeat IPC: 2.11232 cumulative IPC: 1.70295 (Simulation time: 0 hr 22 min 1 sec) 
select_counter is 1023
Heartbeat CPU 0 instructions: 54000003 cycles: 30055266 heartbeat IPC: 2.1232 cumulative IPC: 1.71064 (Simulation time: 0 hr 22 min 25 sec) 
select_counter is 1023
Heartbeat CPU 0 instructions: 55000001 cycles: 30525785 heartbeat IPC: 2.12531 cumulative IPC: 1.71809 (Simulation time: 0 hr 22 min 48 sec) 
select_counter is 1022
Heartbeat CPU 0 instructions: 56000000 cycles: 30996120 heartbeat IPC: 2.12614 cumulative IPC: 1.72529 (Simulation time: 0 hr 23 min 10 sec) 
select_counter is 1023
Heartbeat CPU 0 instructions: 57000003 cycles: 31468351 heartbeat IPC: 2.11761 cumulative IPC: 1.73212 (Simulation time: 0 hr 23 min 35 sec) 
select_counter is 1023
Heartbeat CPU 0 instructions: 58000002 cycles: 31951741 heartbeat IPC: 2.06872 cumulative IPC: 1.73801 (Simulation time: 0 hr 23 min 59 sec) 
select_counter is 1018
Heartbeat CPU 0 instructions: 59000001 cycles: 32522261 heartbeat IPC: 1.75279 cumulative IPC: 1.73831 (Simulation time: 0 hr 24 min 25 sec) 
select_counter is 993
Heartbeat CPU 0 instructions: 60000000 cycles: 33060537 heartbeat IPC: 1.85778 cumulative IPC: 1.74055 (Simulation time: 0 hr 24 min 48 sec) 
select_counter is 985
Heartbeat CPU 0 instructions: 61000003 cycles: 33610257 heartbeat IPC: 1.81911 cumulative IPC: 1.74202 (Simulation time: 0 hr 25 min 13 sec) 
select_counter is 968
Heartbeat CPU 0 instructions: 62000002 cycles: 34155664 heartbeat IPC: 1.83349 cumulative IPC: 1.7437 (Simulation time: 0 hr 25 min 38 sec) 
select_counter is 955
Heartbeat CPU 0 instructions: 63000001 cycles: 34708879 heartbeat IPC: 1.80761 cumulative IPC: 1.74486 (Simulation time: 0 hr 26 min 1 sec) 
select_counter is 932
Heartbeat CPU 0 instructions: 64000000 cycles: 35257304 heartbeat IPC: 1.8234 cumulative IPC: 1.74625 (Simulation time: 0 hr 26 min 25 sec) 
select_counter is 914
Heartbeat CPU 0 instructions: 65000000 cycles: 35943778 heartbeat IPC: 1.45672 cumulative IPC: 1.73997 (Simulation time: 0 hr 26 min 49 sec) 
select_counter is 906
Heartbeat CPU 0 instructions: 66000002 cycles: 36491837 heartbeat IPC: 1.82462 cumulative IPC: 1.74141 (Simulation time: 0 hr 27 min 11 sec) 
select_counter is 867
Heartbeat CPU 0 instructions: 67000002 cycles: 36986464 heartbeat IPC: 2.02173 cumulative IPC: 1.74566 (Simulation time: 0 hr 27 min 32 sec) 
select_counter is 819
Heartbeat CPU 0 instructions: 68000000 cycles: 37468280 heartbeat IPC: 2.07548 cumulative IPC: 1.75045 (Simulation time: 0 hr 27 min 54 sec) 
select_counter is 766
Heartbeat CPU 0 instructions: 69000001 cycles: 37993829 heartbeat IPC: 1.90277 cumulative IPC: 1.75283 (Simulation time: 0 hr 28 min 17 sec) 
select_counter is 699
Heartbeat CPU 0 instructions: 70000000 cycles: 38483193 heartbeat IPC: 2.04347 cumulative IPC: 1.75699 (Simulation time: 0 hr 28 min 39 sec) 
select_counter is 626
Heartbeat CPU 0 instructions: 71000002 cycles: 38976031 heartbeat IPC: 2.02907 cumulative IPC: 1.76087 (Simulation time: 0 hr 29 min 1 sec) 
select_counter is 552
Heartbeat CPU 0 instructions: 72000000 cycles: 39483561 heartbeat IPC: 1.97032 cumulative IPC: 1.76389 (Simulation time: 0 hr 29 min 25 sec) 
select_counter is 505
Heartbeat CPU 0 instructions: 73000001 cycles: 40039121 heartbeat IPC: 1.79999 cumulative IPC: 1.76445 (Simulation time: 0 hr 29 min 49 sec) 
select_counter is 497
Heartbeat CPU 0 instructions: 74000002 cycles: 40662429 heartbeat IPC: 1.60434 cumulative IPC: 1.7617 (Simulation time: 0 hr 30 min 14 sec) 
select_counter is 485
Heartbeat CPU 0 instructions: 75000000 cycles: 41199969 heartbeat IPC: 1.86032 cumulative IPC: 1.76314 (Simulation time: 0 hr 30 min 37 sec) 
select_counter is 489
Heartbeat CPU 0 instructions: 76000000 cycles: 41928604 heartbeat IPC: 1.37243 cumulative IPC: 1.75557 (Simulation time: 0 hr 31 min 3 sec) 
select_counter is 497
Heartbeat CPU 0 instructions: 77000000 cycles: 42649567 heartbeat IPC: 1.38703 cumulative IPC: 1.74864 (Simulation time: 0 hr 31 min 31 sec) 
select_counter is 497
Heartbeat CPU 0 instructions: 78000003 cycles: 43368327 heartbeat IPC: 1.39129 cumulative IPC: 1.74206 (Simulation time: 0 hr 32 min 1 sec) 
select_counter is 497
Heartbeat CPU 0 instructions: 79000000 cycles: 44079228 heartbeat IPC: 1.40666 cumulative IPC: 1.73606 (Simulation time: 0 hr 32 min 27 sec) 
select_counter is 497
Heartbeat CPU 0 instructions: 80000000 cycles: 44764310 heartbeat IPC: 1.45968 cumulative IPC: 1.73137 (Simulation time: 0 hr 32 min 52 sec) 
select_counter is 497
Heartbeat CPU 0 instructions: 81000001 cycles: 45428642 heartbeat IPC: 1.50527 cumulative IPC: 1.72772 (Simulation time: 0 hr 33 min 19 sec) 
select_counter is 497
Heartbeat CPU 0 instructions: 82000002 cycles: 46071600 heartbeat IPC: 1.55531 cumulative IPC: 1.72506 (Simulation time: 0 hr 33 min 45 sec) 
select_counter is 497
Heartbeat CPU 0 instructions: 83000002 cycles: 46885217 heartbeat IPC: 1.22908 cumulative IPC: 1.71558 (Simulation time: 0 hr 34 min 9 sec) 
select_counter is 849
Heartbeat CPU 0 instructions: 84000000 cycles: 47494132 heartbeat IPC: 1.64226 cumulative IPC: 1.71454 (Simulation time: 0 hr 34 min 33 sec) 
select_counter is 984
Heartbeat CPU 0 instructions: 85000000 cycles: 47985048 heartbeat IPC: 2.03701 cumulative IPC: 1.71817 (Simulation time: 0 hr 34 min 53 sec) 
select_counter is 1023
Heartbeat CPU 0 instructions: 86000001 cycles: 48470466 heartbeat IPC: 2.06008 cumulative IPC: 1.72193 (Simulation time: 0 hr 35 min 16 sec) 
select_counter is 1023
Heartbeat CPU 0 instructions: 87000002 cycles: 48956000 heartbeat IPC: 2.05959 cumulative IPC: 1.72561 (Simulation time: 0 hr 35 min 40 sec) 
select_counter is 1023
Heartbeat CPU 0 instructions: 88000000 cycles: 49435593 heartbeat IPC: 2.0851 cumulative IPC: 1.72943 (Simulation time: 0 hr 36 min 3 sec) 
select_counter is 1023
Heartbeat CPU 0 instructions: 89000003 cycles: 49914961 heartbeat IPC: 2.08609 cumulative IPC: 1.73318 (Simulation time: 0 hr 36 min 26 sec) 
select_counter is 1023
Heartbeat CPU 0 instructions: 90000003 cycles: 50395166 heartbeat IPC: 2.08244 cumulative IPC: 1.73682 (Simulation time: 0 hr 36 min 50 sec) 
select_counter is 1023
Heartbeat CPU 0 instructions: 91000003 cycles: 50885520 heartbeat IPC: 2.03934 cumulative IPC: 1.74001 (Simulation time: 0 hr 37 min 13 sec) 
select_counter is 1022
Heartbeat CPU 0 instructions: 92000000 cycles: 51355303 heartbeat IPC: 2.12864 cumulative IPC: 1.74389 (Simulation time: 0 hr 37 min 39 sec) 
select_counter is 1023
Heartbeat CPU 0 instructions: 93000000 cycles: 51811672 heartbeat IPC: 2.19121 cumulative IPC: 1.74819 (Simulation time: 0 hr 38 min 0 sec) 
select_counter is 1023
Heartbeat CPU 0 instructions: 94000003 cycles: 52265319 heartbeat IPC: 2.20436 cumulative IPC: 1.75251 (Simulation time: 0 hr 38 min 20 sec) 
select_counter is 1023
Heartbeat CPU 0 instructions: 95000001 cycles: 52871074 heartbeat IPC: 1.65083 cumulative IPC: 1.75124 (Simulation time: 0 hr 38 min 45 sec) 
select_counter is 1021
Heartbeat CPU 0 instructions: 96000000 cycles: 53433871 heartbeat IPC: 1.77684 cumulative IPC: 1.75153 (Simulation time: 0 hr 39 min 8 sec) 
select_counter is 1023
Heartbeat CPU 0 instructions: 97000000 cycles: 53943149 heartbeat IPC: 1.96356 cumulative IPC: 1.75371 (Simulation time: 0 hr 39 min 29 sec) 
select_counter is 1023
Heartbeat CPU 0 instructions: 98000003 cycles: 54450186 heartbeat IPC: 1.97225 cumulative IPC: 1.75592 (Simulation time: 0 hr 39 min 51 sec) 
select_counter is 1016
Heartbeat CPU 0 instructions: 99000000 cycles: 54955710 heartbeat IPC: 1.97814 cumulative IPC: 1.75814 (Simulation time: 0 hr 40 min 13 sec) 
select_counter is 1015
Heartbeat CPU 0 instructions: 100000000 cycles: 55464961 heartbeat IPC: 1.96367 cumulative IPC: 1.76018 (Simulation time: 0 hr 40 min 34 sec) 
select_counter is 1023
Heartbeat CPU 0 instructions: 101000001 cycles: 55969176 heartbeat IPC: 1.98328 cumulative IPC: 1.76236 (Simulation time: 0 hr 40 min 55 sec) 
select_counter is 1022
Heartbeat CPU 0 instructions: 102000002 cycles: 56528731 heartbeat IPC: 1.78714 cumulative IPC: 1.76263 (Simulation time: 0 hr 41 min 18 sec) 
select_counter is 966
Heartbeat CPU 0 instructions: 103000000 cycles: 57086150 heartbeat IPC: 1.79398 cumulative IPC: 1.76296 (Simulation time: 0 hr 41 min 40 sec) 
select_counter is 886
Heartbeat CPU 0 instructions: 104000000 cycles: 57644475 heartbeat IPC: 1.79107 cumulative IPC: 1.76325 (Simulation time: 0 hr 42 min 0 sec) 
select_counter is 796
Heartbeat CPU 0 instructions: 105000000 cycles: 58209961 heartbeat IPC: 1.76839 cumulative IPC: 1.76331 (Simulation time: 0 hr 42 min 23 sec) 
select_counter is 699
Heartbeat CPU 0 instructions: 106000003 cycles: 58770997 heartbeat IPC: 1.78242 cumulative IPC: 1.76351 (Simulation time: 0 hr 42 min 44 sec) 
select_counter is 613
Heartbeat CPU 0 instructions: 107000000 cycles: 59333837 heartbeat IPC: 1.7767 cumulative IPC: 1.76364 (Simulation time: 0 hr 43 min 5 sec) 
select_counter is 520
Heartbeat CPU 0 instructions: 108000000 cycles: 59958377 heartbeat IPC: 1.60118 cumulative IPC: 1.76182 (Simulation time: 0 hr 43 min 30 sec) 
select_counter is 455
Heartbeat CPU 0 instructions: 109000002 cycles: 60609915 heartbeat IPC: 1.53483 cumulative IPC: 1.75919 (Simulation time: 0 hr 43 min 52 sec) 
select_counter is 438
Heartbeat CPU 0 instructions: 110000003 cycles: 61092392 heartbeat IPC: 2.07264 cumulative IPC: 1.76185 (Simulation time: 0 hr 44 min 16 sec) 
select_counter is 401
Finished CPU 0 instructions: 100000000 cycles: 56758422 cummulative IPC: 1.76185 (Simulation time: 0 hr 44 min 16 sec) 

ChampSim completed all CPUs

Region of Interest Statistics

CPU 0 cummulative IPC: 1.76185 instructions: 100000000 cycles: 56758422
LLC TOTAL     ACCESS:    1161483  HIT:     948966  MISS:     212517
LLC LOAD      ACCESS:     133706  HIT:     128370  MISS:       5336
LLC RFO       ACCESS:      47550  HIT:      18597  MISS:      28953
LLC PREFETCH  ACCESS:     680408  HIT:     507943  MISS:     172465
LLC WRITEBACK ACCESS:     299819  HIT:     294056  MISS:       5763
Ship samples: 
4, 56, 74, 106, 145, 174, 222, 237, 271, 296, 321, 365, 415, 422, 476, 481, 521, 559, 586, 632, 648, 687, 718, 761, 782, 829, 852, 876, 924, 944, 963, 1021, 1042, 1075, 1095, 1134, 1164, 1210, 1219, 1270, 1286, 1313, 1374, 1402, 1437, 1442, 1488, 1505, 1537, 1571, 1611, 1657, 1677, 1708, 1738, 1767, 1823, 1852, 1871, 1899, 1928, 1979, 2012, 2037, 
Lime duel samples: 
10, 40, 95, 126, 139, 167, 200, 226, 278, 302, 345, 353, 412, 433, 477, 496, 517, 544, 583, 634, 657, 673, 714, 742, 796, 819, 847, 874, 915, 946, 984, 1009, 1036, 1068, 1116, 1131, 1167, 1213, 1242, 1267, 1297, 1331, 1370, 1389, 1439, 1458, 1487, 1518, 1564, 1597, 1613, 1651, 1673, 1716, 1728, 1790, 1822, 1825, 1868, 1910, 1932, 1966, 2008, 2044, 
Lime samples: 
10, 126, 200, 302, 412, 496, 583, 673, 796, 874, 984, 1068, 1167, 1267, 1370, 1458, 1564, 1651, 1728, 1825, 1932, 
Insertion Distribution: 
	LOAD 460 0 0 0 0 0 705 68 
	RFO 187 0 0 0 0 0 8644 2967 
	PREF 0 3568 0 0 0 0 4974 19155 
	WRITEBACK 0 0 0 0 0 0 0 3578 
Total Prefetch Downgrades: 2064
