Initialize SIGNATURE TABLE
ST_SET: 1
ST_WAY: 256
ST_TAG_BIT: 16
ST_TAG_MASK: ffff

Initialize PATTERN TABLE
PT_SET: 512
PT_WAY: 4
SIG_DELTA_BIT: 7
C_SIG_BIT: 4
C_DELTA_BIT: 4

Initialize PREFETCH FILTER
FILTER_SET: 1024

*** ChampSim Multicore Out-of-Order Simulator ***

Warmup Instructions: 50000000
Simulation Instructions: 50000000
Number of CPUs: 1
LLC sets: 2048
LLC ways: 16
Off-chip DRAM Size: 4096 MB Channels: 1 Width: 64-bit Data Rate: 3200 MT/s

CPU 0 runs /Users/gandhardeshpande/Desktop/CSE240C/HW1/ChampSim/ipc1_public/client_001.champsimtrace.xz
CPU 0 L1I next line prefetcher
Running FNL-MMA for L1I
CPU 0 L1D next line prefetcher
Heartbeat CPU 0 instructions: 10000003 cycles: 3410197 heartbeat IPC: 2.93238 cumulative IPC: 2.93238 (Simulation time: 0 hr 0 min 13 sec) 
Heartbeat CPU 0 instructions: 20000001 cycles: 7118514 heartbeat IPC: 2.69664 cumulative IPC: 2.80958 (Simulation time: 0 hr 0 min 27 sec) 
Heartbeat CPU 0 instructions: 30000001 cycles: 10481163 heartbeat IPC: 2.97385 cumulative IPC: 2.86228 (Simulation time: 0 hr 0 min 40 sec) 
Heartbeat CPU 0 instructions: 40000003 cycles: 14350768 heartbeat IPC: 2.58424 cumulative IPC: 2.78731 (Simulation time: 0 hr 0 min 54 sec) 
Heartbeat CPU 0 instructions: 50000003 cycles: 17647938 heartbeat IPC: 3.0329 cumulative IPC: 2.83319 (Simulation time: 0 hr 1 min 7 sec) 

Warmup complete CPU 0 instructions: 50000003 cycles: 17647938 (Simulation time: 0 hr 1 min 7 sec) 

Heartbeat CPU 0 instructions: 60000000 cycles: 26655153 heartbeat IPC: 1.11022 cumulative IPC: 1.11022 (Simulation time: 0 hr 1 min 20 sec) 
Heartbeat CPU 0 instructions: 70000000 cycles: 33009617 heartbeat IPC: 1.5737 cumulative IPC: 1.30194 (Simulation time: 0 hr 1 min 30 sec) 
Heartbeat CPU 0 instructions: 80000002 cycles: 42341115 heartbeat IPC: 1.07164 cumulative IPC: 1.21491 (Simulation time: 0 hr 1 min 44 sec) 
Heartbeat CPU 0 instructions: 90000000 cycles: 48549199 heartbeat IPC: 1.6108 cumulative IPC: 1.29445 (Simulation time: 0 hr 1 min 55 sec) 
Heartbeat CPU 0 instructions: 100000002 cycles: 57388356 heartbeat IPC: 1.13133 cumulative IPC: 1.25816 (Simulation time: 0 hr 2 min 6 sec) 
Finished CPU 0 instructions: 50000003 cycles: 39740419 cumulative IPC: 1.25817 (Simulation time: 0 hr 2 min 6 sec) 

ChampSim completed all CPUs

Region of Interest Statistics

CPU 0 cumulative IPC: 1.25817 instructions: 50000003 cycles: 39740419
L1D TOTAL     ACCESS:   21224766  HIT:   20388373  MISS:     836393
L1D LOAD      ACCESS:    8814271  HIT:    8419218  MISS:     395053
L1D RFO       ACCESS:    4040522  HIT:    3981505  MISS:      59017
L1D PREFETCH  ACCESS:    8369973  HIT:    7987650  MISS:     382323
L1D WRITEBACK ACCESS:          0  HIT:          0  MISS:          0
L1D PREFETCH  REQUESTED:    8859717  ISSUED:    8550129  USEFUL:     129286  USELESS:     253011
L1D AVERAGE MISS LATENCY: 47.7707 cycles
L1I TOTAL     ACCESS:   10222191  HIT:    9726992  MISS:     495199
L1I LOAD      ACCESS:    8930358  HIT:    8916274  MISS:      14084
L1I RFO       ACCESS:          0  HIT:          0  MISS:          0
L1I PREFETCH  ACCESS:    1291833  HIT:     810718  MISS:     481115
L1I WRITEBACK ACCESS:          0  HIT:          0  MISS:          0
L1I PREFETCH  REQUESTED:    1319086  ISSUED:    1318727  USEFUL:     321008  USELESS:     160017
L1I AVERAGE MISS LATENCY: 20.722 cycles
L2C TOTAL     ACCESS:    2021138  HIT:    1715382  MISS:     305756
L2C LOAD      ACCESS:     384949  HIT:     271275  MISS:     113674
L2C RFO       ACCESS:      58261  HIT:      21125  MISS:      37136
L2C PREFETCH  ACCESS:    1388356  HIT:    1233626  MISS:     154730
L2C WRITEBACK ACCESS:     189572  HIT:     189356  MISS:        216
L2C PREFETCH  REQUESTED:    1741352  ISSUED:    1737601  USEFUL:      13865  USELESS:     139834
L2C AVERAGE MISS LATENCY: 105.643 cycles
LLC TOTAL     ACCESS:     811896  HIT:     615681  MISS:     196215
LLC LOAD      ACCESS:     113364  HIT:      70847  MISS:      42517
LLC RFO       ACCESS:      37136  HIT:       9080  MISS:      28056
LLC PREFETCH  ACCESS:     554771  HIT:     429795  MISS:     124976
LLC WRITEBACK ACCESS:     106625  HIT:     105959  MISS:        666
LLC PREFETCH  REQUESTED:          0  ISSUED:          0  USEFUL:      27948  USELESS:      99201
LLC AVERAGE MISS LATENCY: 188.26 cycles
Major fault: 0 Minor fault: 3434
I-Shadow cache 408 bytes
Touched + WorthPF tables 24576 bytes 
MMA filter 174 bytes 
FNL filter 272 bytes 
TOTAL PREFETCHER STORAGE SIZE: 98134 bytes
CPU 0 L1I next line prefetcher final stats
CPU 0 L1D next line prefetcher final stats

DRAM Statistics
 CHANNEL 0
 RQ ROW_BUFFER_HIT:      47798  ROW_BUFFER_MISS:     147747
 DBUS_CONGESTED:     117046
 WQ ROW_BUFFER_HIT:      15806  ROW_BUFFER_MISS:      64462  FULL:          0

 AVG_CONGESTED_CYCLE: 5

CPU 0 Branch Prediction Accuracy: 97.9037% MPKI: 3.63418 Average ROB Occupancy at Mispredict: 87.0857

Branch types
NOT_BRANCH: 41331383 82.6628%
BRANCH_DIRECT_JUMP: 455615 0.91123%
BRANCH_INDIRECT: 20390 0.04078%
BRANCH_CONDITIONAL: 6745374 13.4907%
BRANCH_DIRECT_CALL: 494532 0.989064%
BRANCH_INDIRECT_CALL: 228815 0.45763%
BRANCH_RETURN: 723560 1.44712%
BRANCH_OTHER: 0 0%

