Initialize SIGNATURE TABLE
ST_SET: 1
ST_WAY: 256
ST_TAG_BIT: 16
ST_TAG_MASK: ffff

Initialize PATTERN TABLE
PT_SET: 512
PT_WAY: 4
SIG_DELTA_BIT: 7
C_SIG_BIT: 4
C_DELTA_BIT: 4

Initialize PREFETCH FILTER
FILTER_SET: 1024

*** ChampSim Multicore Out-of-Order Simulator ***

Warmup Instructions: 50000000
Simulation Instructions: 50000000
Number of CPUs: 1
LLC sets: 2048
LLC ways: 16
Off-chip DRAM Size: 4096 MB Channels: 1 Width: 64-bit Data Rate: 3200 MT/s

CPU 0 runs /Users/gandhardeshpande/Desktop/CSE240C/HW1/ChampSim/ipc1_public/server_032.champsimtrace.xz
CPU 0 L1I next line prefetcher
Running FNL-MMA for L1I
CPU 0 L1D next line prefetcher
Heartbeat CPU 0 instructions: 10000002 cycles: 3523310 heartbeat IPC: 2.83824 cumulative IPC: 2.83824 (Simulation time: 0 hr 0 min 15 sec) 
Heartbeat CPU 0 instructions: 20000003 cycles: 7048305 heartbeat IPC: 2.83688 cumulative IPC: 2.83756 (Simulation time: 0 hr 0 min 30 sec) 
Heartbeat CPU 0 instructions: 30000000 cycles: 10572759 heartbeat IPC: 2.83732 cumulative IPC: 2.83748 (Simulation time: 0 hr 0 min 45 sec) 
Heartbeat CPU 0 instructions: 40000003 cycles: 14098752 heartbeat IPC: 2.83608 cumulative IPC: 2.83713 (Simulation time: 0 hr 1 min 0 sec) 
Heartbeat CPU 0 instructions: 50000000 cycles: 17623500 heartbeat IPC: 2.83708 cumulative IPC: 2.83712 (Simulation time: 0 hr 1 min 15 sec) 

Warmup complete CPU 0 instructions: 50000004 cycles: 17623501 (Simulation time: 0 hr 1 min 15 sec) 

Heartbeat CPU 0 instructions: 60000002 cycles: 24420458 heartbeat IPC: 1.47125 cumulative IPC: 1.47125 (Simulation time: 0 hr 1 min 31 sec) 
Heartbeat CPU 0 instructions: 70000000 cycles: 31221274 heartbeat IPC: 1.47041 cumulative IPC: 1.47083 (Simulation time: 0 hr 1 min 47 sec) 
*** Reached end of trace for Core: 0 Repeating trace: /Users/gandhardeshpande/Desktop/CSE240C/HW1/ChampSim/ipc1_public/server_032.champsimtrace.xz
Heartbeat CPU 0 instructions: 80000003 cycles: 38022411 heartbeat IPC: 1.47034 cumulative IPC: 1.47067 (Simulation time: 0 hr 2 min 3 sec) 
Heartbeat CPU 0 instructions: 90000002 cycles: 44795934 heartbeat IPC: 1.47634 cumulative IPC: 1.47208 (Simulation time: 0 hr 2 min 19 sec) 
Heartbeat CPU 0 instructions: 100000001 cycles: 51581896 heartbeat IPC: 1.47363 cumulative IPC: 1.47239 (Simulation time: 0 hr 2 min 35 sec) 
Finished CPU 0 instructions: 50000002 cycles: 33958397 cumulative IPC: 1.47239 (Simulation time: 0 hr 2 min 35 sec) 

ChampSim completed all CPUs

Region of Interest Statistics

CPU 0 cumulative IPC: 1.47239 instructions: 50000002 cycles: 33958397
L1D TOTAL     ACCESS:   19774997  HIT:   17946944  MISS:    1828053
L1D LOAD      ACCESS:    6758026  HIT:    5963315  MISS:     794711
L1D RFO       ACCESS:    6539302  HIT:    6244219  MISS:     295083
L1D PREFETCH  ACCESS:    6477669  HIT:    5739410  MISS:     738259
L1D WRITEBACK ACCESS:          0  HIT:          0  MISS:          0
L1D PREFETCH  REQUESTED:    6807912  ISSUED:    6668838  USEFUL:     168699  USELESS:     569559
L1D AVERAGE MISS LATENCY: 19.8087 cycles
L1I TOTAL     ACCESS:   15369587  HIT:   11346446  MISS:    4023141
L1I LOAD      ACCESS:    9735237  HIT:    9710090  MISS:      25147
L1I RFO       ACCESS:          0  HIT:          0  MISS:          0
L1I PREFETCH  ACCESS:    5634350  HIT:    1636356  MISS:    3997994
L1I WRITEBACK ACCESS:          0  HIT:          0  MISS:          0
L1I PREFETCH  REQUESTED:    5793511  ISSUED:    5793005  USEFUL:    3229676  USELESS:     768320
L1I AVERAGE MISS LATENCY: 18.6715 cycles
L2C TOTAL     ACCESS:    7990772  HIT:    7252388  MISS:     738384
L2C LOAD      ACCESS:     782709  HIT:     662335  MISS:     120374
L2C RFO       ACCESS:     292639  HIT:     239792  MISS:      52847
L2C PREFETCH  ACCESS:    6279199  HIT:    5719040  MISS:     560159
L2C WRITEBACK ACCESS:     636225  HIT:     631221  MISS:       5004
L2C PREFETCH  REQUESTED:    7863814  ISSUED:    7841117  USEFUL:       8166  USELESS:     551913
L2C AVERAGE MISS LATENCY: 33.9437 cycles
LLC TOTAL     ACCESS:    2651005  HIT:    2645574  MISS:       5431
LLC LOAD      ACCESS:     120361  HIT:     119924  MISS:        437
LLC RFO       ACCESS:      52714  HIT:      52714  MISS:          0
LLC PREFETCH  ACCESS:    2369045  HIT:    2364076  MISS:       4969
LLC WRITEBACK ACCESS:     108885  HIT:     108860  MISS:         25
LLC PREFETCH  REQUESTED:          0  ISSUED:          0  USEFUL:        377  USELESS:       1369
LLC AVERAGE MISS LATENCY: 146.092 cycles
Major fault: 0 Minor fault: 1179
I-Shadow cache 408 bytes
Touched + WorthPF tables 24576 bytes 
MMA filter 174 bytes 
FNL filter 272 bytes 
TOTAL PREFETCHER STORAGE SIZE: 98134 bytes
CPU 0 L1I next line prefetcher final stats
CPU 0 L1D next line prefetcher final stats

DRAM Statistics
 CHANNEL 0
 RQ ROW_BUFFER_HIT:       1479  ROW_BUFFER_MISS:       3927
 DBUS_CONGESTED:        798
 WQ ROW_BUFFER_HIT:          0  ROW_BUFFER_MISS:         14  FULL:          0

 AVG_CONGESTED_CYCLE: 5

CPU 0 Branch Prediction Accuracy: 99.8762% MPKI: 0.2296 Average ROB Occupancy at Mispredict: 191.733

Branch types
NOT_BRANCH: 40726163 81.4523%
BRANCH_DIRECT_JUMP: 508374 1.01675%
BRANCH_INDIRECT: 180051 0.360102%
BRANCH_CONDITIONAL: 5999663 11.9993%
BRANCH_DIRECT_CALL: 1086739 2.17348%
BRANCH_INDIRECT_CALL: 206109 0.412218%
BRANCH_RETURN: 1292837 2.58567%
BRANCH_OTHER: 0 0%

