Initialize SIGNATURE TABLE
ST_SET: 1
ST_WAY: 256
ST_TAG_BIT: 16
ST_TAG_MASK: ffff

Initialize PATTERN TABLE
PT_SET: 512
PT_WAY: 4
SIG_DELTA_BIT: 7
C_SIG_BIT: 4
C_DELTA_BIT: 4

Initialize PREFETCH FILTER
FILTER_SET: 1024

*** ChampSim Multicore Out-of-Order Simulator ***

Warmup Instructions: 50000000
Simulation Instructions: 50000000
Number of CPUs: 1
LLC sets: 2048
LLC ways: 16
Off-chip DRAM Size: 4096 MB Channels: 1 Width: 64-bit Data Rate: 3200 MT/s

CPU 0 runs /Users/gandhardeshpande/Desktop/CSE240C/HW1/ChampSim/ipc1_public/server_013.champsimtrace.xz
CPU 0 L1I next line prefetcher
Running FNL-MMA for L1I
CPU 0 L1D next line prefetcher
Heartbeat CPU 0 instructions: 10000000 cycles: 3211907 heartbeat IPC: 3.11342 cumulative IPC: 3.11342 (Simulation time: 0 hr 0 min 14 sec) 
Heartbeat CPU 0 instructions: 20000001 cycles: 6412880 heartbeat IPC: 3.12405 cumulative IPC: 3.11872 (Simulation time: 0 hr 0 min 27 sec) 
Heartbeat CPU 0 instructions: 30000002 cycles: 9617176 heartbeat IPC: 3.12081 cumulative IPC: 3.11942 (Simulation time: 0 hr 0 min 41 sec) 
Heartbeat CPU 0 instructions: 40000002 cycles: 12817139 heartbeat IPC: 3.12504 cumulative IPC: 3.12082 (Simulation time: 0 hr 0 min 54 sec) 
Heartbeat CPU 0 instructions: 50000000 cycles: 16016776 heartbeat IPC: 3.12535 cumulative IPC: 3.12173 (Simulation time: 0 hr 1 min 8 sec) 

Warmup complete CPU 0 instructions: 50000004 cycles: 16016777 (Simulation time: 0 hr 1 min 8 sec) 

Heartbeat CPU 0 instructions: 60000000 cycles: 23526041 heartbeat IPC: 1.33169 cumulative IPC: 1.33169 (Simulation time: 0 hr 1 min 20 sec) 
Heartbeat CPU 0 instructions: 70000003 cycles: 31226881 heartbeat IPC: 1.29856 cumulative IPC: 1.31492 (Simulation time: 0 hr 1 min 33 sec) 
Heartbeat CPU 0 instructions: 80000003 cycles: 38396341 heartbeat IPC: 1.39481 cumulative IPC: 1.34051 (Simulation time: 0 hr 1 min 45 sec) 
Heartbeat CPU 0 instructions: 90000003 cycles: 45743693 heartbeat IPC: 1.36103 cumulative IPC: 1.34558 (Simulation time: 0 hr 1 min 57 sec) 
Heartbeat CPU 0 instructions: 100000003 cycles: 53103917 heartbeat IPC: 1.35865 cumulative IPC: 1.34818 (Simulation time: 0 hr 2 min 10 sec) 
Finished CPU 0 instructions: 50000003 cycles: 37087141 cumulative IPC: 1.34818 (Simulation time: 0 hr 2 min 10 sec) 

ChampSim completed all CPUs

Region of Interest Statistics

CPU 0 cumulative IPC: 1.34818 instructions: 50000003 cycles: 37087141
L1D TOTAL     ACCESS:   17292398  HIT:   16225975  MISS:    1066423
L1D LOAD      ACCESS:    6302752  HIT:    5800370  MISS:     502382
L1D RFO       ACCESS:    4928326  HIT:    4848138  MISS:      80188
L1D PREFETCH  ACCESS:    6061320  HIT:    5577467  MISS:     483853
L1D WRITEBACK ACCESS:          0  HIT:          0  MISS:          0
L1D PREFETCH  REQUESTED:    6337615  ISSUED:    6243467  USEFUL:     132357  USELESS:     351504
L1D AVERAGE MISS LATENCY: 42.8502 cycles
L1I TOTAL     ACCESS:   11937360  HIT:    9790104  MISS:    2147256
L1I LOAD      ACCESS:    8700740  HIT:    8578061  MISS:     122679
L1I RFO       ACCESS:          0  HIT:          0  MISS:          0
L1I PREFETCH  ACCESS:    3236620  HIT:    1212043  MISS:    2024577
L1I WRITEBACK ACCESS:          0  HIT:          0  MISS:          0
L1I PREFETCH  REQUESTED:    3377860  ISSUED:    3369061  USEFUL:    1359306  USELESS:     665285
L1I AVERAGE MISS LATENCY: 31.0682 cycles
L2C TOTAL     ACCESS:    3966981  HIT:    2532367  MISS:    1434614
L2C LOAD      ACCESS:     525490  HIT:     244776  MISS:     280714
L2C RFO       ACCESS:      78881  HIT:      30411  MISS:      48470
L2C PREFETCH  ACCESS:    3086827  HIT:    1983361  MISS:    1103466
L2C WRITEBACK ACCESS:     275783  HIT:     273819  MISS:       1964
L2C PREFETCH  REQUESTED:    3407608  ISSUED:    3405231  USEFUL:      30736  USELESS:    1072836
L2C AVERAGE MISS LATENCY: 46.9896 cycles
LLC TOTAL     ACCESS:    2549921  HIT:    2390124  MISS:     159797
LLC LOAD      ACCESS:     280591  HIT:     257080  MISS:      23511
LLC RFO       ACCESS:      48462  HIT:      38469  MISS:       9993
LLC PREFETCH  ACCESS:    2045076  HIT:    1919077  MISS:     125999
LLC WRITEBACK ACCESS:     175792  HIT:     175498  MISS:        294
LLC PREFETCH  REQUESTED:          0  ISSUED:          0  USEFUL:      11125  USELESS:     113911
LLC AVERAGE MISS LATENCY: 174.472 cycles
Major fault: 0 Minor fault: 6205
I-Shadow cache 408 bytes
Touched + WorthPF tables 24576 bytes 
MMA filter 174 bytes 
FNL filter 272 bytes 
TOTAL PREFETCHER STORAGE SIZE: 98134 bytes
CPU 0 L1I next line prefetcher final stats
CPU 0 L1D next line prefetcher final stats

DRAM Statistics
 CHANNEL 0
 RQ ROW_BUFFER_HIT:      24784  ROW_BUFFER_MISS:     134680
 DBUS_CONGESTED:      69564
 WQ ROW_BUFFER_HIT:      11967  ROW_BUFFER_MISS:      50622  FULL:          0

 AVG_CONGESTED_CYCLE: 5

CPU 0 Branch Prediction Accuracy: 99.4114% MPKI: 1.0933 Average ROB Occupancy at Mispredict: 124.304

Branch types
NOT_BRANCH: 40713252 81.4265%
BRANCH_DIRECT_JUMP: 463701 0.927402%
BRANCH_INDIRECT: 146544 0.293088%
BRANCH_CONDITIONAL: 6981953 13.9639%
BRANCH_DIRECT_CALL: 665005 1.33001%
BRANCH_INDIRECT_CALL: 165152 0.330304%
BRANCH_RETURN: 864313 1.72863%
BRANCH_OTHER: 0 0%

