Initialize SIGNATURE TABLE
ST_SET: 1
ST_WAY: 256
ST_TAG_BIT: 16
ST_TAG_MASK: ffff

Initialize PATTERN TABLE
PT_SET: 512
PT_WAY: 4
SIG_DELTA_BIT: 7
C_SIG_BIT: 4
C_DELTA_BIT: 4

Initialize PREFETCH FILTER
FILTER_SET: 1024

*** ChampSim Multicore Out-of-Order Simulator ***

Warmup Instructions: 50000000
Simulation Instructions: 50000000
Number of CPUs: 1
LLC sets: 2048
LLC ways: 16
Off-chip DRAM Size: 4096 MB Channels: 1 Width: 64-bit Data Rate: 3200 MT/s

CPU 0 runs /Users/gandhardeshpande/Desktop/CSE240C/HW1/ChampSim/ipc1_public/server_036.champsimtrace.xz
CPU 0 L1I next line prefetcher
Running FNL-MMA for L1I
CPU 0 L1D next line prefetcher
Heartbeat CPU 0 instructions: 10000000 cycles: 3458934 heartbeat IPC: 2.89106 cumulative IPC: 2.89106 (Simulation time: 0 hr 0 min 15 sec) 
Heartbeat CPU 0 instructions: 20000000 cycles: 6924726 heartbeat IPC: 2.88534 cumulative IPC: 2.8882 (Simulation time: 0 hr 0 min 29 sec) 
Heartbeat CPU 0 instructions: 30000003 cycles: 10432739 heartbeat IPC: 2.85062 cumulative IPC: 2.87556 (Simulation time: 0 hr 0 min 44 sec) 
Heartbeat CPU 0 instructions: 40000000 cycles: 13895238 heartbeat IPC: 2.88809 cumulative IPC: 2.87868 (Simulation time: 0 hr 0 min 59 sec) 
Heartbeat CPU 0 instructions: 50000002 cycles: 17356940 heartbeat IPC: 2.88875 cumulative IPC: 2.88069 (Simulation time: 0 hr 1 min 14 sec) 

Warmup complete CPU 0 instructions: 50000002 cycles: 17356940 (Simulation time: 0 hr 1 min 14 sec) 

Heartbeat CPU 0 instructions: 60000000 cycles: 22950610 heartbeat IPC: 1.78773 cumulative IPC: 1.78773 (Simulation time: 0 hr 1 min 27 sec) 
Heartbeat CPU 0 instructions: 70000001 cycles: 28501808 heartbeat IPC: 1.80141 cumulative IPC: 1.79455 (Simulation time: 0 hr 1 min 40 sec) 
Heartbeat CPU 0 instructions: 80000001 cycles: 34085062 heartbeat IPC: 1.79107 cumulative IPC: 1.79339 (Simulation time: 0 hr 1 min 53 sec) 
Heartbeat CPU 0 instructions: 90000002 cycles: 39636660 heartbeat IPC: 1.80128 cumulative IPC: 1.79535 (Simulation time: 0 hr 2 min 6 sec) 
Heartbeat CPU 0 instructions: 100000001 cycles: 45181031 heartbeat IPC: 1.80363 cumulative IPC: 1.797 (Simulation time: 0 hr 2 min 20 sec) 
Finished CPU 0 instructions: 50000003 cycles: 27824092 cumulative IPC: 1.797 (Simulation time: 0 hr 2 min 20 sec) 

ChampSim completed all CPUs

Region of Interest Statistics

CPU 0 cumulative IPC: 1.797 instructions: 50000003 cycles: 27824092
L1D TOTAL     ACCESS:   20494838  HIT:   20434702  MISS:      60136
L1D LOAD      ACCESS:    6673665  HIT:    6638878  MISS:      34787
L1D RFO       ACCESS:    7344189  HIT:    7336973  MISS:       7216
L1D PREFETCH  ACCESS:    6476984  HIT:    6458851  MISS:      18133
L1D WRITEBACK ACCESS:          0  HIT:          0  MISS:          0
L1D PREFETCH  REQUESTED:    6674624  ISSUED:    6509125  USEFUL:       5466  USELESS:      12668
L1D AVERAGE MISS LATENCY: 17.5723 cycles
L1I TOTAL     ACCESS:   15295460  HIT:   10928762  MISS:    4366698
L1I LOAD      ACCESS:    8962664  HIT:    8930330  MISS:      32334
L1I RFO       ACCESS:          0  HIT:          0  MISS:          0
L1I PREFETCH  ACCESS:    6332796  HIT:    1998432  MISS:    4334364
L1I WRITEBACK ACCESS:          0  HIT:          0  MISS:          0
L1I PREFETCH  REQUESTED:    6518101  ISSUED:    6518101  USEFUL:    3850061  USELESS:     484292
L1I AVERAGE MISS LATENCY: 14.6793 cycles
L2C TOTAL     ACCESS:    6051196  HIT:    6049031  MISS:       2165
L2C LOAD      ACCESS:      52811  HIT:      52326  MISS:        485
L2C RFO       ACCESS:       7208  HIT:       7159  MISS:         49
L2C PREFETCH  ACCESS:    5975555  HIT:    5973933  MISS:       1622
L2C WRITEBACK ACCESS:      15622  HIT:      15613  MISS:          9
L2C PREFETCH  REQUESTED:    5897569  ISSUED:    5897475  USEFUL:        229  USELESS:        912
L2C AVERAGE MISS LATENCY: 149.813 cycles
LLC TOTAL     ACCESS:     953385  HIT:     950332  MISS:       3053
LLC LOAD      ACCESS:        485  HIT:        168  MISS:        317
LLC RFO       ACCESS:         49  HIT:         18  MISS:         31
LLC PREFETCH  ACCESS:     951946  HIT:     949252  MISS:       2694
LLC WRITEBACK ACCESS:        905  HIT:        894  MISS:         11
LLC PREFETCH  REQUESTED:          0  ISSUED:          0  USEFUL:         80  USELESS:        987
LLC AVERAGE MISS LATENCY: 254.937 cycles
Major fault: 0 Minor fault: 1927
I-Shadow cache 408 bytes
Touched + WorthPF tables 24576 bytes 
MMA filter 174 bytes 
FNL filter 272 bytes 
TOTAL PREFETCHER STORAGE SIZE: 98134 bytes
CPU 0 L1I next line prefetcher final stats
CPU 0 L1D next line prefetcher final stats

DRAM Statistics
 CHANNEL 0
 RQ ROW_BUFFER_HIT:        870  ROW_BUFFER_MISS:       2172
 DBUS_CONGESTED:       1785
 WQ ROW_BUFFER_HIT:        279  ROW_BUFFER_MISS:       1437  FULL:          0

 AVG_CONGESTED_CYCLE: 6

CPU 0 Branch Prediction Accuracy: 99.8717% MPKI: 0.21174 Average ROB Occupancy at Mispredict: 229.197

Branch types
NOT_BRANCH: 41748435 83.4969%
BRANCH_DIRECT_JUMP: 468564 0.937128%
BRANCH_INDIRECT: 0 0%
BRANCH_CONDITIONAL: 5599754 11.1995%
BRANCH_DIRECT_CALL: 885105 1.77021%
BRANCH_INDIRECT_CALL: 206338 0.412676%
BRANCH_RETURN: 1091468 2.18294%
BRANCH_OTHER: 0 0%

