Initialize SIGNATURE TABLE
ST_SET: 1
ST_WAY: 256
ST_TAG_BIT: 16
ST_TAG_MASK: ffff

Initialize PATTERN TABLE
PT_SET: 512
PT_WAY: 4
SIG_DELTA_BIT: 7
C_SIG_BIT: 4
C_DELTA_BIT: 4

Initialize PREFETCH FILTER
FILTER_SET: 1024

*** ChampSim Multicore Out-of-Order Simulator ***

Warmup Instructions: 50000000
Simulation Instructions: 50000000
Number of CPUs: 1
LLC sets: 2048
LLC ways: 16
Off-chip DRAM Size: 4096 MB Channels: 1 Width: 64-bit Data Rate: 3200 MT/s

CPU 0 runs /Users/gandhardeshpande/Desktop/CSE240C/HW1/ChampSim/ipc1_public/server_011.champsimtrace.xz
CPU 0 L1I next line prefetcher
Running FNL-MMA for L1I
CPU 0 L1D next line prefetcher
Heartbeat CPU 0 instructions: 10000002 cycles: 3202408 heartbeat IPC: 3.12265 cumulative IPC: 3.12265 (Simulation time: 0 hr 0 min 14 sec) 
Heartbeat CPU 0 instructions: 20000001 cycles: 6409966 heartbeat IPC: 3.11764 cumulative IPC: 3.12014 (Simulation time: 0 hr 0 min 27 sec) 
Heartbeat CPU 0 instructions: 30000001 cycles: 9661951 heartbeat IPC: 3.07504 cumulative IPC: 3.10496 (Simulation time: 0 hr 0 min 41 sec) 
Heartbeat CPU 0 instructions: 40000003 cycles: 12861016 heartbeat IPC: 3.12591 cumulative IPC: 3.11017 (Simulation time: 0 hr 0 min 54 sec) 
Heartbeat CPU 0 instructions: 50000000 cycles: 16067355 heartbeat IPC: 3.11882 cumulative IPC: 3.1119 (Simulation time: 0 hr 1 min 8 sec) 

Warmup complete CPU 0 instructions: 50000004 cycles: 16067356 (Simulation time: 0 hr 1 min 8 sec) 

Heartbeat CPU 0 instructions: 60000002 cycles: 23500920 heartbeat IPC: 1.34525 cumulative IPC: 1.34525 (Simulation time: 0 hr 1 min 21 sec) 
Heartbeat CPU 0 instructions: 70000001 cycles: 31383284 heartbeat IPC: 1.26865 cumulative IPC: 1.30583 (Simulation time: 0 hr 1 min 33 sec) 
Heartbeat CPU 0 instructions: 80000003 cycles: 40084048 heartbeat IPC: 1.14932 cumulative IPC: 1.24913 (Simulation time: 0 hr 1 min 44 sec) 
Heartbeat CPU 0 instructions: 90000001 cycles: 47654510 heartbeat IPC: 1.32092 cumulative IPC: 1.26634 (Simulation time: 0 hr 1 min 55 sec) 
Heartbeat CPU 0 instructions: 100000000 cycles: 55057576 heartbeat IPC: 1.35079 cumulative IPC: 1.28237 (Simulation time: 0 hr 2 min 8 sec) 
Finished CPU 0 instructions: 50000003 cycles: 38990232 cumulative IPC: 1.28237 (Simulation time: 0 hr 2 min 8 sec) 

ChampSim completed all CPUs

Region of Interest Statistics

CPU 0 cumulative IPC: 1.28237 instructions: 50000003 cycles: 38990232
L1D TOTAL     ACCESS:   18173713  HIT:   17142530  MISS:    1031183
L1D LOAD      ACCESS:    6789598  HIT:    6307331  MISS:     482267
L1D RFO       ACCESS:    4834681  HIT:    4752709  MISS:      81972
L1D PREFETCH  ACCESS:    6549434  HIT:    6082490  MISS:     466944
L1D WRITEBACK ACCESS:          0  HIT:          0  MISS:          0
L1D PREFETCH  REQUESTED:    6826551  ISSUED:    6734198  USEFUL:     136730  USELESS:     330209
L1D AVERAGE MISS LATENCY: 41.5079 cycles
L1I TOTAL     ACCESS:   11873904  HIT:   10006269  MISS:    1867635
L1I LOAD      ACCESS:    8876895  HIT:    8747439  MISS:     129456
L1I RFO       ACCESS:          0  HIT:          0  MISS:          0
L1I PREFETCH  ACCESS:    2997009  HIT:    1258830  MISS:    1738179
L1I WRITEBACK ACCESS:          0  HIT:          0  MISS:          0
L1I PREFETCH  REQUESTED:    3120315  ISSUED:    3115608  USEFUL:    1175384  USELESS:     562779
L1I AVERAGE MISS LATENCY: 31.7544 cycles
L2C TOTAL     ACCESS:    3663231  HIT:    2486606  MISS:    1176625
L2C LOAD      ACCESS:     527952  HIT:     291975  MISS:     235977
L2C RFO       ACCESS:      80129  HIT:      34401  MISS:      45728
L2C PREFETCH  ACCESS:    2787034  HIT:    1893579  MISS:     893455
L2C WRITEBACK ACCESS:     268116  HIT:     266651  MISS:       1465
L2C PREFETCH  REQUESTED:    3048904  ISSUED:    3047186  USEFUL:      30320  USELESS:     863236
L2C AVERAGE MISS LATENCY: 52.3327 cycles
LLC TOTAL     ACCESS:    2148624  HIT:    1968094  MISS:     180530
LLC LOAD      ACCESS:     235866  HIT:     208287  MISS:      27579
LLC RFO       ACCESS:      45722  HIT:      32376  MISS:      13346
LLC PREFETCH  ACCESS:    1713775  HIT:    1574531  MISS:     139244
LLC WRITEBACK ACCESS:     153261  HIT:     152900  MISS:        361
LLC PREFETCH  REQUESTED:          0  ISSUED:          0  USEFUL:      14196  USELESS:     122923
LLC AVERAGE MISS LATENCY: 179.864 cycles
Major fault: 0 Minor fault: 6976
I-Shadow cache 408 bytes
Touched + WorthPF tables 24576 bytes 
MMA filter 174 bytes 
FNL filter 272 bytes 
TOTAL PREFETCHER STORAGE SIZE: 98134 bytes
CPU 0 L1I next line prefetcher final stats
CPU 0 L1D next line prefetcher final stats

DRAM Statistics
 CHANNEL 0
 RQ ROW_BUFFER_HIT:      32590  ROW_BUFFER_MISS:     147562
 DBUS_CONGESTED:      83321
 WQ ROW_BUFFER_HIT:      12036  ROW_BUFFER_MISS:      49438  FULL:          0

 AVG_CONGESTED_CYCLE: 5

CPU 0 Branch Prediction Accuracy: 97.5565% MPKI: 4.59006 Average ROB Occupancy at Mispredict: 62.4334

Branch types
NOT_BRANCH: 40607199 81.2144%
BRANCH_DIRECT_JUMP: 451601 0.903202%
BRANCH_INDIRECT: 151580 0.30316%
BRANCH_CONDITIONAL: 7041635 14.0833%
BRANCH_DIRECT_CALL: 647827 1.29565%
BRANCH_INDIRECT_CALL: 211373 0.422746%
BRANCH_RETURN: 888439 1.77688%
BRANCH_OTHER: 0 0%

