
*** ChampSim Multicore Out-of-Order Simulator ***

Warmup Instructions: 10000000
Simulation Instructions: 100000000
Configuration: 2
Number of CPUs: 1
LLC sets: 2048
LLC ways: 16
Off-chip DRAM Channels: 1 Width: 64-bit Data Rate: 1600 MT/s

CPU 0 runs /datasets/cs240c-wi22-a00-public/data/Assignment2-gz/sphinx3_883B.trace.gz
CPU 0 L1D next line prefetcher
CPU 0 L2C IP-based stride prefetcher
Heartbeat CPU 0 instructions: 1000003 cycles: 414356 heartbeat IPC: 2.41339 cumulative IPC: 2.41339 (Simulation time: 0 hr 0 min 24 sec) 
select_counter is 502
Heartbeat CPU 0 instructions: 2000000 cycles: 823899 heartbeat IPC: 2.44174 cumulative IPC: 2.42748 (Simulation time: 0 hr 0 min 50 sec) 
select_counter is 504
Heartbeat CPU 0 instructions: 3000003 cycles: 1298758 heartbeat IPC: 2.10589 cumulative IPC: 2.3099 (Simulation time: 0 hr 1 min 17 sec) 
select_counter is 455
Heartbeat CPU 0 instructions: 4000000 cycles: 1637648 heartbeat IPC: 2.9508 cumulative IPC: 2.44253 (Simulation time: 0 hr 1 min 43 sec) 
select_counter is 457
Heartbeat CPU 0 instructions: 5000000 cycles: 1992310 heartbeat IPC: 2.81959 cumulative IPC: 2.50965 (Simulation time: 0 hr 2 min 11 sec) 
select_counter is 464
Heartbeat CPU 0 instructions: 6000003 cycles: 2406673 heartbeat IPC: 2.41335 cumulative IPC: 2.49307 (Simulation time: 0 hr 2 min 39 sec) 
select_counter is 561
Heartbeat CPU 0 instructions: 7000002 cycles: 2815507 heartbeat IPC: 2.44598 cumulative IPC: 2.48623 (Simulation time: 0 hr 3 min 8 sec) 
select_counter is 621
Heartbeat CPU 0 instructions: 8000000 cycles: 3291557 heartbeat IPC: 2.10062 cumulative IPC: 2.43046 (Simulation time: 0 hr 3 min 29 sec) 
select_counter is 496
Heartbeat CPU 0 instructions: 9000001 cycles: 3630556 heartbeat IPC: 2.94986 cumulative IPC: 2.47896 (Simulation time: 0 hr 3 min 48 sec) 
select_counter is 172
Heartbeat CPU 0 instructions: 10000000 cycles: 3984645 heartbeat IPC: 2.82415 cumulative IPC: 2.50963 (Simulation time: 0 hr 4 min 10 sec) 
select_counter is 137

Warmup complete CPU 0 instructions: 10000004 cycles: 3984646 (Simulation time: 0 hr 4 min 10 sec) 

Heartbeat CPU 0 instructions: 11000002 cycles: 5600499 heartbeat IPC: 0.618869 cumulative IPC: 0.618867 (Simulation time: 0 hr 4 min 35 sec) 
select_counter is 263
Heartbeat CPU 0 instructions: 12000000 cycles: 7108308 heartbeat IPC: 0.663213 cumulative IPC: 0.640273 (Simulation time: 0 hr 5 min 0 sec) 
select_counter is 304
Heartbeat CPU 0 instructions: 13000001 cycles: 8268260 heartbeat IPC: 0.862105 cumulative IPC: 0.700343 (Simulation time: 0 hr 5 min 22 sec) 
select_counter is 212
Heartbeat CPU 0 instructions: 14000002 cycles: 9042352 heartbeat IPC: 1.29184 cumulative IPC: 0.790872 (Simulation time: 0 hr 5 min 43 sec) 
select_counter is 980
Heartbeat CPU 0 instructions: 15000000 cycles: 9963820 heartbeat IPC: 1.08522 cumulative IPC: 0.836235 (Simulation time: 0 hr 6 min 6 sec) 
select_counter is 891
Heartbeat CPU 0 instructions: 16000000 cycles: 11572195 heartbeat IPC: 0.621746 cumulative IPC: 0.790769 (Simulation time: 0 hr 6 min 33 sec) 
select_counter is 974
Heartbeat CPU 0 instructions: 17000000 cycles: 13134546 heartbeat IPC: 0.640061 cumulative IPC: 0.765035 (Simulation time: 0 hr 7 min 2 sec) 
select_counter is 1021
Heartbeat CPU 0 instructions: 18000002 cycles: 14448361 heartbeat IPC: 0.761144 cumulative IPC: 0.764547 (Simulation time: 0 hr 7 min 31 sec) 
select_counter is 951
Heartbeat CPU 0 instructions: 19000003 cycles: 15279844 heartbeat IPC: 1.20267 cumulative IPC: 0.796799 (Simulation time: 0 hr 7 min 57 sec) 
select_counter is 797
Heartbeat CPU 0 instructions: 20000000 cycles: 16091960 heartbeat IPC: 1.23135 cumulative IPC: 0.825947 (Simulation time: 0 hr 8 min 19 sec) 
select_counter is 675
Heartbeat CPU 0 instructions: 21000000 cycles: 17591438 heartbeat IPC: 0.666899 cumulative IPC: 0.80842 (Simulation time: 0 hr 8 min 41 sec) 
select_counter is 729
Heartbeat CPU 0 instructions: 22000002 cycles: 19113005 heartbeat IPC: 0.657219 cumulative IPC: 0.793212 (Simulation time: 0 hr 9 min 4 sec) 
select_counter is 766
Heartbeat CPU 0 instructions: 23000001 cycles: 20577336 heartbeat IPC: 0.682905 cumulative IPC: 0.783477 (Simulation time: 0 hr 9 min 26 sec) 
select_counter is 773
Heartbeat CPU 0 instructions: 24000000 cycles: 21472052 heartbeat IPC: 1.11767 cumulative IPC: 0.800576 (Simulation time: 0 hr 9 min 47 sec) 
select_counter is 697
Heartbeat CPU 0 instructions: 25000001 cycles: 22277032 heartbeat IPC: 1.24227 cumulative IPC: 0.820013 (Simulation time: 0 hr 10 min 8 sec) 
select_counter is 515
Heartbeat CPU 0 instructions: 26000001 cycles: 23475756 heartbeat IPC: 0.83422 cumulative IPC: 0.820887 (Simulation time: 0 hr 10 min 32 sec) 
select_counter is 521
Heartbeat CPU 0 instructions: 27000000 cycles: 24972473 heartbeat IPC: 0.668128 cumulative IPC: 0.809993 (Simulation time: 0 hr 11 min 3 sec) 
select_counter is 575
Heartbeat CPU 0 instructions: 28000000 cycles: 26462356 heartbeat IPC: 0.671194 cumulative IPC: 0.800793 (Simulation time: 0 hr 11 min 29 sec) 
select_counter is 576
Heartbeat CPU 0 instructions: 29000000 cycles: 27466759 heartbeat IPC: 0.995616 cumulative IPC: 0.809126 (Simulation time: 0 hr 12 min 1 sec) 
select_counter is 510
Heartbeat CPU 0 instructions: 30000002 cycles: 28297419 heartbeat IPC: 1.20386 cumulative IPC: 0.822613 (Simulation time: 0 hr 12 min 26 sec) 
select_counter is 367
Heartbeat CPU 0 instructions: 31000003 cycles: 29411947 heartbeat IPC: 0.897242 cumulative IPC: 0.825884 (Simulation time: 0 hr 12 min 51 sec) 
select_counter is 361
Heartbeat CPU 0 instructions: 32000000 cycles: 30901763 heartbeat IPC: 0.671222 cumulative IPC: 0.817324 (Simulation time: 0 hr 13 min 18 sec) 
select_counter is 444
Heartbeat CPU 0 instructions: 33000000 cycles: 32338015 heartbeat IPC: 0.696257 cumulative IPC: 0.811191 (Simulation time: 0 hr 13 min 47 sec) 
select_counter is 454
Heartbeat CPU 0 instructions: 34000000 cycles: 33458376 heartbeat IPC: 0.892569 cumulative IPC: 0.814284 (Simulation time: 0 hr 14 min 19 sec) 
select_counter is 369
Heartbeat CPU 0 instructions: 35000003 cycles: 34297748 heartbeat IPC: 1.19137 cumulative IPC: 0.824726 (Simulation time: 0 hr 14 min 52 sec) 
select_counter is 286
Heartbeat CPU 0 instructions: 36000000 cycles: 35352446 heartbeat IPC: 0.948136 cumulative IPC: 0.828875 (Simulation time: 0 hr 15 min 19 sec) 
select_counter is 288
Heartbeat CPU 0 instructions: 37000001 cycles: 36931834 heartbeat IPC: 0.633157 cumulative IPC: 0.819493 (Simulation time: 0 hr 15 min 47 sec) 
select_counter is 349
Heartbeat CPU 0 instructions: 38000000 cycles: 38441352 heartbeat IPC: 0.662462 cumulative IPC: 0.812614 (Simulation time: 0 hr 16 min 12 sec) 
select_counter is 336
Heartbeat CPU 0 instructions: 39000003 cycles: 39573113 heartbeat IPC: 0.883581 cumulative IPC: 0.814871 (Simulation time: 0 hr 16 min 35 sec) 
select_counter is 243
Heartbeat CPU 0 instructions: 40000000 cycles: 40424266 heartbeat IPC: 1.17487 cumulative IPC: 0.82328 (Simulation time: 0 hr 16 min 58 sec) 
select_counter is 181
Heartbeat CPU 0 instructions: 41000003 cycles: 41471311 heartbeat IPC: 0.955072 cumulative IPC: 0.826961 (Simulation time: 0 hr 17 min 22 sec) 
select_counter is 178
Heartbeat CPU 0 instructions: 42000000 cycles: 43035041 heartbeat IPC: 0.639495 cumulative IPC: 0.819454 (Simulation time: 0 hr 17 min 47 sec) 
select_counter is 221
Heartbeat CPU 0 instructions: 43000003 cycles: 44535727 heartbeat IPC: 0.666364 cumulative IPC: 0.813788 (Simulation time: 0 hr 18 min 11 sec) 
select_counter is 216
Heartbeat CPU 0 instructions: 44000000 cycles: 45556624 heartbeat IPC: 0.979528 cumulative IPC: 0.817859 (Simulation time: 0 hr 18 min 34 sec) 
select_counter is 108
Heartbeat CPU 0 instructions: 45000002 cycles: 46410596 heartbeat IPC: 1.171 cumulative IPC: 0.824967 (Simulation time: 0 hr 18 min 57 sec) 
select_counter is 56
Heartbeat CPU 0 instructions: 46000001 cycles: 47492969 heartbeat IPC: 0.923895 cumulative IPC: 0.827428 (Simulation time: 0 hr 19 min 25 sec) 
select_counter is 65
Heartbeat CPU 0 instructions: 47000002 cycles: 49033367 heartbeat IPC: 0.649184 cumulative IPC: 0.821333 (Simulation time: 0 hr 19 min 59 sec) 
select_counter is 117
Heartbeat CPU 0 instructions: 48000000 cycles: 50536013 heartbeat IPC: 0.665491 cumulative IPC: 0.816302 (Simulation time: 0 hr 20 min 28 sec) 
select_counter is 120
Heartbeat CPU 0 instructions: 49000001 cycles: 51480398 heartbeat IPC: 1.05889 cumulative IPC: 0.821126 (Simulation time: 0 hr 20 min 58 sec) 
select_counter is 20
Heartbeat CPU 0 instructions: 50000000 cycles: 52324186 heartbeat IPC: 1.18513 cumulative IPC: 0.82748 (Simulation time: 0 hr 21 min 27 sec) 
select_counter is 984
Heartbeat CPU 0 instructions: 51000003 cycles: 53438936 heartbeat IPC: 0.897065 cumulative IPC: 0.829048 (Simulation time: 0 hr 22 min 0 sec) 
select_counter is 995
Heartbeat CPU 0 instructions: 52000000 cycles: 55013364 heartbeat IPC: 0.635149 cumulative IPC: 0.823066 (Simulation time: 0 hr 22 min 28 sec) 
select_counter is 1008
Heartbeat CPU 0 instructions: 53000000 cycles: 56746357 heartbeat IPC: 0.577036 cumulative IPC: 0.814985 (Simulation time: 0 hr 22 min 58 sec) 
select_counter is 1021
Heartbeat CPU 0 instructions: 54000003 cycles: 58025446 heartbeat IPC: 0.781809 cumulative IPC: 0.8142 (Simulation time: 0 hr 23 min 25 sec) 
select_counter is 1021
Heartbeat CPU 0 instructions: 55000003 cycles: 58917739 heartbeat IPC: 1.12071 cumulative IPC: 0.819178 (Simulation time: 0 hr 23 min 53 sec) 
select_counter is 996
Heartbeat CPU 0 instructions: 56000000 cycles: 59803263 heartbeat IPC: 1.12927 cumulative IPC: 0.824098 (Simulation time: 0 hr 24 min 21 sec) 
select_counter is 963
Heartbeat CPU 0 instructions: 57000002 cycles: 60949079 heartbeat IPC: 0.872742 cumulative IPC: 0.825076 (Simulation time: 0 hr 24 min 48 sec) 
select_counter is 973
Heartbeat CPU 0 instructions: 58000001 cycles: 61983098 heartbeat IPC: 0.967099 cumulative IPC: 0.827608 (Simulation time: 0 hr 25 min 14 sec) 
select_counter is 911
Heartbeat CPU 0 instructions: 59000003 cycles: 62847744 heartbeat IPC: 1.15655 cumulative IPC: 0.83244 (Simulation time: 0 hr 25 min 46 sec) 
select_counter is 901
Heartbeat CPU 0 instructions: 60000000 cycles: 63733151 heartbeat IPC: 1.12942 cumulative IPC: 0.836841 (Simulation time: 0 hr 26 min 13 sec) 
select_counter is 899
Heartbeat CPU 0 instructions: 61000001 cycles: 64877277 heartbeat IPC: 0.87403 cumulative IPC: 0.83754 (Simulation time: 0 hr 26 min 42 sec) 
select_counter is 849
Heartbeat CPU 0 instructions: 62000001 cycles: 65738189 heartbeat IPC: 1.16156 cumulative IPC: 0.842057 (Simulation time: 0 hr 27 min 12 sec) 
select_counter is 829
Heartbeat CPU 0 instructions: 63000000 cycles: 66579774 heartbeat IPC: 1.18823 cumulative IPC: 0.846711 (Simulation time: 0 hr 27 min 42 sec) 
select_counter is 825
Heartbeat CPU 0 instructions: 64000000 cycles: 67777792 heartbeat IPC: 0.834712 cumulative IPC: 0.846486 (Simulation time: 0 hr 28 min 11 sec) 
select_counter is 799
Heartbeat CPU 0 instructions: 65000003 cycles: 68648532 heartbeat IPC: 1.14845 cumulative IPC: 0.850552 (Simulation time: 0 hr 28 min 41 sec) 
select_counter is 757
Heartbeat CPU 0 instructions: 66000002 cycles: 69498567 heartbeat IPC: 1.17642 cumulative IPC: 0.85478 (Simulation time: 0 hr 29 min 11 sec) 
select_counter is 750
Heartbeat CPU 0 instructions: 67000000 cycles: 70706556 heartbeat IPC: 0.82782 cumulative IPC: 0.854292 (Simulation time: 0 hr 29 min 40 sec) 
select_counter is 761
Heartbeat CPU 0 instructions: 68000000 cycles: 72279340 heartbeat IPC: 0.635815 cumulative IPC: 0.849261 (Simulation time: 0 hr 30 min 9 sec) 
select_counter is 716
Heartbeat CPU 0 instructions: 69000003 cycles: 73143038 heartbeat IPC: 1.15782 cumulative IPC: 0.853114 (Simulation time: 0 hr 30 min 37 sec) 
select_counter is 660
Heartbeat CPU 0 instructions: 70000000 cycles: 73996886 heartbeat IPC: 1.17117 cumulative IPC: 0.856993 (Simulation time: 0 hr 31 min 5 sec) 
select_counter is 653
Heartbeat CPU 0 instructions: 71000000 cycles: 75108453 heartbeat IPC: 0.899631 cumulative IPC: 0.857659 (Simulation time: 0 hr 31 min 35 sec) 
select_counter is 679
Heartbeat CPU 0 instructions: 72000000 cycles: 76517811 heartbeat IPC: 0.709543 cumulative IPC: 0.854781 (Simulation time: 0 hr 32 min 3 sec) 
select_counter is 661
Heartbeat CPU 0 instructions: 73000000 cycles: 77379278 heartbeat IPC: 1.16081 cumulative IPC: 0.858373 (Simulation time: 0 hr 32 min 31 sec) 
select_counter is 622
Heartbeat CPU 0 instructions: 74000000 cycles: 78241107 heartbeat IPC: 1.16032 cumulative IPC: 0.861878 (Simulation time: 0 hr 32 min 59 sec) 
select_counter is 620
Heartbeat CPU 0 instructions: 75000000 cycles: 79397574 heartbeat IPC: 0.864703 cumulative IPC: 0.861921 (Simulation time: 0 hr 33 min 28 sec) 
select_counter is 658
Heartbeat CPU 0 instructions: 76000000 cycles: 80656351 heartbeat IPC: 0.794422 cumulative IPC: 0.860813 (Simulation time: 0 hr 33 min 55 sec) 
select_counter is 605
Heartbeat CPU 0 instructions: 77000003 cycles: 81533546 heartbeat IPC: 1.14 cumulative IPC: 0.863971 (Simulation time: 0 hr 34 min 21 sec) 
select_counter is 578
Heartbeat CPU 0 instructions: 78000000 cycles: 82374713 heartbeat IPC: 1.18882 cumulative IPC: 0.867457 (Simulation time: 0 hr 34 min 49 sec) 
select_counter is 584
Heartbeat CPU 0 instructions: 79000001 cycles: 83664399 heartbeat IPC: 0.775383 cumulative IPC: 0.865966 (Simulation time: 0 hr 35 min 18 sec) 
select_counter is 610
Heartbeat CPU 0 instructions: 80000000 cycles: 84797577 heartbeat IPC: 0.882473 cumulative IPC: 0.866198 (Simulation time: 0 hr 35 min 45 sec) 
select_counter is 554
Heartbeat CPU 0 instructions: 81000000 cycles: 85669348 heartbeat IPC: 1.14709 cumulative IPC: 0.869196 (Simulation time: 0 hr 36 min 13 sec) 
select_counter is 551
Heartbeat CPU 0 instructions: 82000000 cycles: 86499328 heartbeat IPC: 1.20485 cumulative IPC: 0.872572 (Simulation time: 0 hr 36 min 37 sec) 
select_counter is 556
Heartbeat CPU 0 instructions: 83000000 cycles: 87895702 heartbeat IPC: 0.716141 cumulative IPC: 0.869969 (Simulation time: 0 hr 37 min 5 sec) 
select_counter is 592
Heartbeat CPU 0 instructions: 84000000 cycles: 88808551 heartbeat IPC: 1.09547 cumulative IPC: 0.872396 (Simulation time: 0 hr 37 min 31 sec) 
select_counter is 533
Heartbeat CPU 0 instructions: 85000001 cycles: 89652699 heartbeat IPC: 1.18463 cumulative IPC: 0.875472 (Simulation time: 0 hr 37 min 56 sec) 
select_counter is 533
Heartbeat CPU 0 instructions: 86000001 cycles: 90672494 heartbeat IPC: 0.980589 cumulative IPC: 0.876709 (Simulation time: 0 hr 38 min 21 sec) 
select_counter is 576
Heartbeat CPU 0 instructions: 87000000 cycles: 91849150 heartbeat IPC: 0.849865 cumulative IPC: 0.876349 (Simulation time: 0 hr 38 min 46 sec) 
select_counter is 531
Heartbeat CPU 0 instructions: 88000000 cycles: 92713059 heartbeat IPC: 1.15753 cumulative IPC: 0.879087 (Simulation time: 0 hr 39 min 12 sec) 
select_counter is 522
Heartbeat CPU 0 instructions: 89000000 cycles: 93534977 heartbeat IPC: 1.21667 cumulative IPC: 0.882185 (Simulation time: 0 hr 39 min 37 sec) 
select_counter is 524
Heartbeat CPU 0 instructions: 90000000 cycles: 94819071 heartbeat IPC: 0.778759 cumulative IPC: 0.880723 (Simulation time: 0 hr 40 min 5 sec) 
select_counter is 549
Heartbeat CPU 0 instructions: 91000003 cycles: 96062328 heartbeat IPC: 0.804341 cumulative IPC: 0.879692 (Simulation time: 0 hr 40 min 32 sec) 
select_counter is 563
Heartbeat CPU 0 instructions: 92000000 cycles: 97018314 heartbeat IPC: 1.04604 cumulative IPC: 0.881401 (Simulation time: 0 hr 40 min 58 sec) 
select_counter is 533
Heartbeat CPU 0 instructions: 93000000 cycles: 97864296 heartbeat IPC: 1.18206 cumulative IPC: 0.884111 (Simulation time: 0 hr 41 min 21 sec) 
select_counter is 536
Heartbeat CPU 0 instructions: 94000002 cycles: 98690623 heartbeat IPC: 1.21018 cumulative IPC: 0.886956 (Simulation time: 0 hr 41 min 46 sec) 
select_counter is 538
Heartbeat CPU 0 instructions: 95000001 cycles: 100044063 heartbeat IPC: 0.738857 cumulative IPC: 0.884869 (Simulation time: 0 hr 42 min 11 sec) 
select_counter is 545
Heartbeat CPU 0 instructions: 96000000 cycles: 100917605 heartbeat IPC: 1.14476 cumulative IPC: 0.887211 (Simulation time: 0 hr 42 min 35 sec) 
select_counter is 513
Heartbeat CPU 0 instructions: 97000002 cycles: 101766449 heartbeat IPC: 1.17808 cumulative IPC: 0.889736 (Simulation time: 0 hr 42 min 58 sec) 
select_counter is 514
Heartbeat CPU 0 instructions: 98000003 cycles: 102927024 heartbeat IPC: 0.861643 cumulative IPC: 0.889407 (Simulation time: 0 hr 43 min 22 sec) 
select_counter is 571
Heartbeat CPU 0 instructions: 99000000 cycles: 103986287 heartbeat IPC: 0.94405 cumulative IPC: 0.889985 (Simulation time: 0 hr 43 min 42 sec) 
select_counter is 503
Heartbeat CPU 0 instructions: 100000000 cycles: 104856472 heartbeat IPC: 1.14918 cumulative IPC: 0.892221 (Simulation time: 0 hr 44 min 6 sec) 
select_counter is 512
Heartbeat CPU 0 instructions: 101000001 cycles: 105685589 heartbeat IPC: 1.2061 cumulative IPC: 0.89478 (Simulation time: 0 hr 44 min 27 sec) 
select_counter is 515
Heartbeat CPU 0 instructions: 102000003 cycles: 107118953 heartbeat IPC: 0.697661 cumulative IPC: 0.892041 (Simulation time: 0 hr 44 min 49 sec) 
select_counter is 555
Heartbeat CPU 0 instructions: 103000001 cycles: 108047845 heartbeat IPC: 1.07655 cumulative IPC: 0.893688 (Simulation time: 0 hr 45 min 7 sec) 
select_counter is 494
Heartbeat CPU 0 instructions: 104000000 cycles: 108891320 heartbeat IPC: 1.18557 cumulative IPC: 0.896034 (Simulation time: 0 hr 45 min 24 sec) 
select_counter is 495
Heartbeat CPU 0 instructions: 105000002 cycles: 109947193 heartbeat IPC: 0.947085 cumulative IPC: 0.896543 (Simulation time: 0 hr 45 min 41 sec) 
select_counter is 513
Heartbeat CPU 0 instructions: 106000003 cycles: 111371228 heartbeat IPC: 0.702231 cumulative IPC: 0.893966 (Simulation time: 0 hr 45 min 58 sec) 
select_counter is 529
Heartbeat CPU 0 instructions: 107000001 cycles: 112223557 heartbeat IPC: 1.17325 cumulative IPC: 0.896166 (Simulation time: 0 hr 46 min 13 sec) 
select_counter is 471
Heartbeat CPU 0 instructions: 108000000 cycles: 113071972 heartbeat IPC: 1.17867 cumulative IPC: 0.898363 (Simulation time: 0 hr 46 min 27 sec) 
select_counter is 475
Heartbeat CPU 0 instructions: 109000001 cycles: 114194850 heartbeat IPC: 0.89057 cumulative IPC: 0.898283 (Simulation time: 0 hr 46 min 41 sec) 
select_counter is 514
Heartbeat CPU 0 instructions: 110000000 cycles: 115544518 heartbeat IPC: 0.740922 cumulative IPC: 0.89638 (Simulation time: 0 hr 46 min 55 sec) 
select_counter is 479
Finished CPU 0 instructions: 100000000 cycles: 111559873 cummulative IPC: 0.89638 (Simulation time: 0 hr 46 min 55 sec) 

ChampSim completed all CPUs

Region of Interest Statistics

CPU 0 cummulative IPC: 0.89638 instructions: 100000000 cycles: 111559873
LLC TOTAL     ACCESS:    1795766  HIT:     691742  MISS:    1104024
LLC LOAD      ACCESS:     314487  HIT:     254380  MISS:      60107
LLC RFO       ACCESS:      99604  HIT:      86433  MISS:      13171
LLC PREFETCH  ACCESS:    1240251  HIT:     213043  MISS:    1027208
LLC WRITEBACK ACCESS:     141424  HIT:     137886  MISS:       3538
Ship samples: 
12, 43, 76, 111, 136, 170, 204, 233, 259, 295, 350, 353, 390, 418, 457, 501, 542, 544, 603, 609, 662, 677, 711, 755, 776, 800, 832, 879, 905, 941, 974, 1000, 1027, 1078, 1112, 1121, 1154, 1200, 1237, 1267, 1309, 1317, 1364, 1381, 1413, 1456, 1492, 1504, 1536, 1592, 1624, 1648, 1687, 1716, 1741, 1784, 1815, 1845, 1883, 1904, 1923, 1953, 1988, 2043, 
Lime duel samples: 
15, 32, 75, 122, 151, 166, 194, 252, 272, 314, 342, 358, 392, 424, 454, 509, 533, 545, 586, 623, 643, 683, 706, 750, 778, 826, 839, 865, 903, 945, 978, 994, 1036, 1064, 1118, 1143, 1166, 1191, 1225, 1251, 1310, 1331, 1374, 1396, 1437, 1458, 1491, 1528, 1560, 1590, 1614, 1638, 1695, 1722, 1754, 1778, 1793, 1846, 1867, 1907, 1933, 1956, 2011, 2041, 
Lime samples: 
15, 194, 392, 586, 778, 978, 1166, 1374, 1560, 1754, 1933, 
Insertion Distribution: 
	LOAD 5740 0 0 0 0 0 17357 15974 
	RFO 517 0 0 0 0 0 3085 500 
	PREF 0 1549 0 0 0 0 48088 371309 
	WRITEBACK 0 0 0 0 0 0 0 2372 
Total Prefetch Downgrades: 15902
