
*** ChampSim Multicore Out-of-Order Simulator ***

Warmup Instructions: 50000000
Simulation Instructions: 100000000
Configuration: 2
Number of CPUs: 1
LLC sets: 2048
LLC ways: 16
Off-chip DRAM Channels: 1 Width: 64-bit Data Rate: 1600 MT/s

CPU 0 runs /datasets/cs240c-wi22-a00-public/data/Assignment2-gz/zeusmp_600B.trace.gz
CPU 0 L1D next line prefetcher
CPU 0 L2C IP-based stride prefetcher
Initialize LRU replacement state
Heartbeat CPU 0 instructions: 1000000 cycles: 407346 heartbeat IPC: 2.45492 cumulative IPC: 2.45492 (Simulation time: 0 hr 1 min 9 sec) 
Heartbeat CPU 0 instructions: 2000001 cycles: 814284 heartbeat IPC: 2.45738 cumulative IPC: 2.45615 (Simulation time: 0 hr 2 min 13 sec) 
Heartbeat CPU 0 instructions: 3000000 cycles: 1221753 heartbeat IPC: 2.45417 cumulative IPC: 2.45549 (Simulation time: 0 hr 3 min 12 sec) 
Heartbeat CPU 0 instructions: 4000000 cycles: 1629404 heartbeat IPC: 2.45308 cumulative IPC: 2.45489 (Simulation time: 0 hr 4 min 17 sec) 
Heartbeat CPU 0 instructions: 5000001 cycles: 2036967 heartbeat IPC: 2.45361 cumulative IPC: 2.45463 (Simulation time: 0 hr 5 min 12 sec) 
Heartbeat CPU 0 instructions: 6000000 cycles: 2444291 heartbeat IPC: 2.45505 cumulative IPC: 2.4547 (Simulation time: 0 hr 6 min 8 sec) 
Heartbeat CPU 0 instructions: 7000000 cycles: 2851775 heartbeat IPC: 2.45408 cumulative IPC: 2.45461 (Simulation time: 0 hr 7 min 13 sec) 
Heartbeat CPU 0 instructions: 8000000 cycles: 3259377 heartbeat IPC: 2.45337 cumulative IPC: 2.45446 (Simulation time: 0 hr 8 min 12 sec) 
Heartbeat CPU 0 instructions: 9000003 cycles: 3666450 heartbeat IPC: 2.45657 cumulative IPC: 2.45469 (Simulation time: 0 hr 9 min 5 sec) 
Heartbeat CPU 0 instructions: 10000001 cycles: 4073948 heartbeat IPC: 2.45399 cumulative IPC: 2.45462 (Simulation time: 0 hr 10 min 4 sec) 
Heartbeat CPU 0 instructions: 11000000 cycles: 4481314 heartbeat IPC: 2.45479 cumulative IPC: 2.45464 (Simulation time: 0 hr 11 min 8 sec) 
Heartbeat CPU 0 instructions: 12000000 cycles: 4888910 heartbeat IPC: 2.45341 cumulative IPC: 2.45453 (Simulation time: 0 hr 12 min 11 sec) 
Heartbeat CPU 0 instructions: 13000003 cycles: 5296038 heartbeat IPC: 2.45624 cumulative IPC: 2.45467 (Simulation time: 0 hr 13 min 9 sec) 
Heartbeat CPU 0 instructions: 14000001 cycles: 5703620 heartbeat IPC: 2.45349 cumulative IPC: 2.45458 (Simulation time: 0 hr 14 min 17 sec) 
Heartbeat CPU 0 instructions: 15000003 cycles: 6111272 heartbeat IPC: 2.45308 cumulative IPC: 2.45448 (Simulation time: 0 hr 15 min 29 sec) 
Heartbeat CPU 0 instructions: 16000000 cycles: 6519155 heartbeat IPC: 2.45168 cumulative IPC: 2.45431 (Simulation time: 0 hr 16 min 38 sec) 
Heartbeat CPU 0 instructions: 17000002 cycles: 6945425 heartbeat IPC: 2.34594 cumulative IPC: 2.44765 (Simulation time: 0 hr 17 min 45 sec) 
Heartbeat CPU 0 instructions: 18000000 cycles: 7402887 heartbeat IPC: 2.18597 cumulative IPC: 2.43148 (Simulation time: 0 hr 18 min 54 sec) 
Heartbeat CPU 0 instructions: 19000000 cycles: 7812631 heartbeat IPC: 2.44055 cumulative IPC: 2.43196 (Simulation time: 0 hr 20 min 2 sec) 
Heartbeat CPU 0 instructions: 20000000 cycles: 8225105 heartbeat IPC: 2.4244 cumulative IPC: 2.43158 (Simulation time: 0 hr 21 min 9 sec) 
Heartbeat CPU 0 instructions: 21000001 cycles: 8686462 heartbeat IPC: 2.16752 cumulative IPC: 2.41756 (Simulation time: 0 hr 22 min 18 sec) 
Heartbeat CPU 0 instructions: 22000000 cycles: 9108335 heartbeat IPC: 2.37038 cumulative IPC: 2.41537 (Simulation time: 0 hr 23 min 26 sec) 
Heartbeat CPU 0 instructions: 23000000 cycles: 9515149 heartbeat IPC: 2.45813 cumulative IPC: 2.4172 (Simulation time: 0 hr 24 min 36 sec) 
Heartbeat CPU 0 instructions: 24000000 cycles: 9968803 heartbeat IPC: 2.20432 cumulative IPC: 2.40751 (Simulation time: 0 hr 25 min 47 sec) 
Heartbeat CPU 0 instructions: 25000000 cycles: 10408184 heartbeat IPC: 2.27593 cumulative IPC: 2.40196 (Simulation time: 0 hr 27 min 2 sec) 
Heartbeat CPU 0 instructions: 26000000 cycles: 10815139 heartbeat IPC: 2.45727 cumulative IPC: 2.40404 (Simulation time: 0 hr 28 min 8 sec) 
Heartbeat CPU 0 instructions: 27000003 cycles: 11253214 heartbeat IPC: 2.28272 cumulative IPC: 2.39931 (Simulation time: 0 hr 29 min 16 sec) 
Heartbeat CPU 0 instructions: 28000000 cycles: 11711459 heartbeat IPC: 2.18223 cumulative IPC: 2.39082 (Simulation time: 0 hr 30 min 21 sec) 
Heartbeat CPU 0 instructions: 29000000 cycles: 12119007 heartbeat IPC: 2.4537 cumulative IPC: 2.39294 (Simulation time: 0 hr 31 min 27 sec) 
Heartbeat CPU 0 instructions: 30000002 cycles: 12541767 heartbeat IPC: 2.36541 cumulative IPC: 2.39201 (Simulation time: 0 hr 32 min 34 sec) 
Heartbeat CPU 0 instructions: 31000002 cycles: 13008152 heartbeat IPC: 2.14415 cumulative IPC: 2.38312 (Simulation time: 0 hr 33 min 43 sec) 
Heartbeat CPU 0 instructions: 32000000 cycles: 13426551 heartbeat IPC: 2.39006 cumulative IPC: 2.38334 (Simulation time: 0 hr 34 min 46 sec) 
Heartbeat CPU 0 instructions: 33000002 cycles: 13838102 heartbeat IPC: 2.42984 cumulative IPC: 2.38472 (Simulation time: 0 hr 35 min 50 sec) 
Heartbeat CPU 0 instructions: 34000000 cycles: 14301783 heartbeat IPC: 2.15665 cumulative IPC: 2.37733 (Simulation time: 0 hr 36 min 58 sec) 
Heartbeat CPU 0 instructions: 35000001 cycles: 14738012 heartbeat IPC: 2.29238 cumulative IPC: 2.37481 (Simulation time: 0 hr 38 min 6 sec) 
Heartbeat CPU 0 instructions: 36000000 cycles: 15145661 heartbeat IPC: 2.45309 cumulative IPC: 2.37692 (Simulation time: 0 hr 39 min 10 sec) 
Heartbeat CPU 0 instructions: 37000001 cycles: 15596601 heartbeat IPC: 2.21759 cumulative IPC: 2.37231 (Simulation time: 0 hr 40 min 18 sec) 
Heartbeat CPU 0 instructions: 38000001 cycles: 16052828 heartbeat IPC: 2.19189 cumulative IPC: 2.36718 (Simulation time: 0 hr 41 min 25 sec) 
Heartbeat CPU 0 instructions: 39000002 cycles: 16459965 heartbeat IPC: 2.45618 cumulative IPC: 2.36939 (Simulation time: 0 hr 42 min 31 sec) 
Heartbeat CPU 0 instructions: 40000000 cycles: 16894196 heartbeat IPC: 2.30292 cumulative IPC: 2.36768 (Simulation time: 0 hr 43 min 43 sec) 
Heartbeat CPU 0 instructions: 41000002 cycles: 17361932 heartbeat IPC: 2.13796 cumulative IPC: 2.36149 (Simulation time: 0 hr 44 min 53 sec) 
Heartbeat CPU 0 instructions: 42000000 cycles: 17776373 heartbeat IPC: 2.41288 cumulative IPC: 2.36269 (Simulation time: 0 hr 46 min 2 sec) 
Heartbeat CPU 0 instructions: 43000003 cycles: 18194816 heartbeat IPC: 2.38982 cumulative IPC: 2.36331 (Simulation time: 0 hr 47 min 9 sec) 
Heartbeat CPU 0 instructions: 44000000 cycles: 18662030 heartbeat IPC: 2.14034 cumulative IPC: 2.35773 (Simulation time: 0 hr 48 min 15 sec) 
Heartbeat CPU 0 instructions: 45000003 cycles: 19093777 heartbeat IPC: 2.31618 cumulative IPC: 2.35679 (Simulation time: 0 hr 49 min 21 sec) 
Heartbeat CPU 0 instructions: 46000003 cycles: 19502053 heartbeat IPC: 2.44932 cumulative IPC: 2.35873 (Simulation time: 0 hr 50 min 30 sec) 
Heartbeat CPU 0 instructions: 47000001 cycles: 19962546 heartbeat IPC: 2.17158 cumulative IPC: 2.35441 (Simulation time: 0 hr 51 min 39 sec) 
Heartbeat CPU 0 instructions: 48000000 cycles: 20413618 heartbeat IPC: 2.21694 cumulative IPC: 2.35137 (Simulation time: 0 hr 52 min 48 sec) 
Heartbeat CPU 0 instructions: 49000001 cycles: 20820468 heartbeat IPC: 2.45791 cumulative IPC: 2.35345 (Simulation time: 0 hr 53 min 55 sec) 
Heartbeat CPU 0 instructions: 50000000 cycles: 21265975 heartbeat IPC: 2.24463 cumulative IPC: 2.35117 (Simulation time: 0 hr 55 min 2 sec) 

Warmup complete CPU 0 instructions: 50000001 cycles: 21265976 (Simulation time: 0 hr 55 min 2 sec) 

Heartbeat CPU 0 instructions: 51000001 cycles: 22054977 heartbeat IPC: 1.26743 cumulative IPC: 1.26743 (Simulation time: 0 hr 56 min 18 sec) 
Heartbeat CPU 0 instructions: 52000000 cycles: 22829707 heartbeat IPC: 1.29077 cumulative IPC: 1.27899 (Simulation time: 0 hr 57 min 37 sec) 
Heartbeat CPU 0 instructions: 53000001 cycles: 23612844 heartbeat IPC: 1.27692 cumulative IPC: 1.2783 (Simulation time: 0 hr 58 min 56 sec) 
Heartbeat CPU 0 instructions: 54000000 cycles: 24395080 heartbeat IPC: 1.27839 cumulative IPC: 1.27832 (Simulation time: 1 hr 0 min 15 sec) 
Heartbeat CPU 0 instructions: 55000001 cycles: 25175013 heartbeat IPC: 1.28216 cumulative IPC: 1.27909 (Simulation time: 1 hr 1 min 31 sec) 
Heartbeat CPU 0 instructions: 56000000 cycles: 25954140 heartbeat IPC: 1.28349 cumulative IPC: 1.27982 (Simulation time: 1 hr 2 min 51 sec) 
Heartbeat CPU 0 instructions: 57000003 cycles: 26741963 heartbeat IPC: 1.26932 cumulative IPC: 1.27831 (Simulation time: 1 hr 4 min 6 sec) 
Heartbeat CPU 0 instructions: 58000001 cycles: 27513041 heartbeat IPC: 1.29688 cumulative IPC: 1.2806 (Simulation time: 1 hr 5 min 23 sec) 
Heartbeat CPU 0 instructions: 59000000 cycles: 28288968 heartbeat IPC: 1.28878 cumulative IPC: 1.2815 (Simulation time: 1 hr 6 min 41 sec) 
Heartbeat CPU 0 instructions: 60000000 cycles: 29069694 heartbeat IPC: 1.28086 cumulative IPC: 1.28144 (Simulation time: 1 hr 7 min 55 sec) 
Heartbeat CPU 0 instructions: 61000003 cycles: 29845390 heartbeat IPC: 1.28917 cumulative IPC: 1.28214 (Simulation time: 1 hr 9 min 8 sec) 
Heartbeat CPU 0 instructions: 62000001 cycles: 30630552 heartbeat IPC: 1.27362 cumulative IPC: 1.28142 (Simulation time: 1 hr 10 min 28 sec) 
Heartbeat CPU 0 instructions: 63000000 cycles: 31408522 heartbeat IPC: 1.2854 cumulative IPC: 1.28173 (Simulation time: 1 hr 11 min 42 sec) 
Heartbeat CPU 0 instructions: 64000000 cycles: 32187692 heartbeat IPC: 1.28342 cumulative IPC: 1.28185 (Simulation time: 1 hr 12 min 58 sec) 
Heartbeat CPU 0 instructions: 65000001 cycles: 32977960 heartbeat IPC: 1.26539 cumulative IPC: 1.28074 (Simulation time: 1 hr 14 min 14 sec) 
Heartbeat CPU 0 instructions: 66000000 cycles: 33768566 heartbeat IPC: 1.26485 cumulative IPC: 1.27973 (Simulation time: 1 hr 15 min 31 sec) 
Heartbeat CPU 0 instructions: 67000001 cycles: 34550221 heartbeat IPC: 1.27934 cumulative IPC: 1.27971 (Simulation time: 1 hr 16 min 43 sec) 
Heartbeat CPU 0 instructions: 68000000 cycles: 35325766 heartbeat IPC: 1.28941 cumulative IPC: 1.28025 (Simulation time: 1 hr 17 min 56 sec) 
Heartbeat CPU 0 instructions: 69000002 cycles: 36114975 heartbeat IPC: 1.26709 cumulative IPC: 1.27955 (Simulation time: 1 hr 19 min 13 sec) 
Heartbeat CPU 0 instructions: 70000000 cycles: 36899698 heartbeat IPC: 1.27433 cumulative IPC: 1.27929 (Simulation time: 1 hr 20 min 29 sec) 
Heartbeat CPU 0 instructions: 71000001 cycles: 37676890 heartbeat IPC: 1.28668 cumulative IPC: 1.27964 (Simulation time: 1 hr 21 min 45 sec) 
Heartbeat CPU 0 instructions: 72000000 cycles: 38454547 heartbeat IPC: 1.28591 cumulative IPC: 1.27992 (Simulation time: 1 hr 22 min 58 sec) 
Heartbeat CPU 0 instructions: 73000003 cycles: 39236890 heartbeat IPC: 1.27822 cumulative IPC: 1.27985 (Simulation time: 1 hr 24 min 13 sec) 
Heartbeat CPU 0 instructions: 74000002 cycles: 40016675 heartbeat IPC: 1.2824 cumulative IPC: 1.27995 (Simulation time: 1 hr 25 min 31 sec) 
Heartbeat CPU 0 instructions: 75000003 cycles: 40802306 heartbeat IPC: 1.27286 cumulative IPC: 1.27967 (Simulation time: 1 hr 26 min 52 sec) 
Heartbeat CPU 0 instructions: 76000000 cycles: 41581828 heartbeat IPC: 1.28283 cumulative IPC: 1.27979 (Simulation time: 1 hr 28 min 8 sec) 
Heartbeat CPU 0 instructions: 77000000 cycles: 42361817 heartbeat IPC: 1.28207 cumulative IPC: 1.27987 (Simulation time: 1 hr 29 min 26 sec) 
Heartbeat CPU 0 instructions: 78000003 cycles: 43142347 heartbeat IPC: 1.28118 cumulative IPC: 1.27992 (Simulation time: 1 hr 30 min 42 sec) 
Heartbeat CPU 0 instructions: 79000000 cycles: 43932588 heartbeat IPC: 1.26543 cumulative IPC: 1.27941 (Simulation time: 1 hr 31 min 56 sec) 
Heartbeat CPU 0 instructions: 80000000 cycles: 44710620 heartbeat IPC: 1.28529 cumulative IPC: 1.27961 (Simulation time: 1 hr 33 min 12 sec) 
Heartbeat CPU 0 instructions: 81000002 cycles: 45491069 heartbeat IPC: 1.28132 cumulative IPC: 1.27966 (Simulation time: 1 hr 34 min 26 sec) 
Heartbeat CPU 0 instructions: 82000002 cycles: 46268573 heartbeat IPC: 1.28617 cumulative IPC: 1.27987 (Simulation time: 1 hr 35 min 41 sec) 
Heartbeat CPU 0 instructions: 83000001 cycles: 47041391 heartbeat IPC: 1.29396 cumulative IPC: 1.28029 (Simulation time: 1 hr 36 min 56 sec) 
Heartbeat CPU 0 instructions: 84000000 cycles: 47822744 heartbeat IPC: 1.27983 cumulative IPC: 1.28028 (Simulation time: 1 hr 38 min 9 sec) 
Heartbeat CPU 0 instructions: 85000002 cycles: 48610187 heartbeat IPC: 1.26994 cumulative IPC: 1.27998 (Simulation time: 1 hr 39 min 25 sec) 
Heartbeat CPU 0 instructions: 86000002 cycles: 49386398 heartbeat IPC: 1.28831 cumulative IPC: 1.28021 (Simulation time: 1 hr 40 min 37 sec) 
Heartbeat CPU 0 instructions: 87000000 cycles: 50167490 heartbeat IPC: 1.28026 cumulative IPC: 1.28021 (Simulation time: 1 hr 41 min 53 sec) 
Heartbeat CPU 0 instructions: 88000000 cycles: 50947442 heartbeat IPC: 1.28213 cumulative IPC: 1.28026 (Simulation time: 1 hr 43 min 10 sec) 
Heartbeat CPU 0 instructions: 89000002 cycles: 51720928 heartbeat IPC: 1.29285 cumulative IPC: 1.28058 (Simulation time: 1 hr 44 min 23 sec) 
Heartbeat CPU 0 instructions: 90000002 cycles: 52496634 heartbeat IPC: 1.28915 cumulative IPC: 1.28079 (Simulation time: 1 hr 45 min 38 sec) 
Heartbeat CPU 0 instructions: 91000001 cycles: 53282539 heartbeat IPC: 1.27242 cumulative IPC: 1.28059 (Simulation time: 1 hr 46 min 51 sec) 
Heartbeat CPU 0 instructions: 92000000 cycles: 54074132 heartbeat IPC: 1.26327 cumulative IPC: 1.28017 (Simulation time: 1 hr 48 min 5 sec) 
Heartbeat CPU 0 instructions: 93000000 cycles: 54848805 heartbeat IPC: 1.29087 cumulative IPC: 1.28042 (Simulation time: 1 hr 49 min 19 sec) 
Heartbeat CPU 0 instructions: 94000002 cycles: 55628415 heartbeat IPC: 1.2827 cumulative IPC: 1.28047 (Simulation time: 1 hr 50 min 37 sec) 
Heartbeat CPU 0 instructions: 95000001 cycles: 56411236 heartbeat IPC: 1.27743 cumulative IPC: 1.2804 (Simulation time: 1 hr 51 min 59 sec) 
Heartbeat CPU 0 instructions: 96000000 cycles: 57199286 heartbeat IPC: 1.26895 cumulative IPC: 1.28015 (Simulation time: 1 hr 53 min 18 sec) 
Heartbeat CPU 0 instructions: 97000003 cycles: 57967424 heartbeat IPC: 1.30185 cumulative IPC: 1.2806 (Simulation time: 1 hr 54 min 33 sec) 
Heartbeat CPU 0 instructions: 98000002 cycles: 58745971 heartbeat IPC: 1.28444 cumulative IPC: 1.28068 (Simulation time: 1 hr 55 min 50 sec) 
Heartbeat CPU 0 instructions: 99000000 cycles: 59523990 heartbeat IPC: 1.28531 cumulative IPC: 1.28078 (Simulation time: 1 hr 57 min 11 sec) 
Heartbeat CPU 0 instructions: 100000000 cycles: 60295419 heartbeat IPC: 1.2963 cumulative IPC: 1.28108 (Simulation time: 1 hr 58 min 31 sec) 
Heartbeat CPU 0 instructions: 101000002 cycles: 61071506 heartbeat IPC: 1.28852 cumulative IPC: 1.28123 (Simulation time: 1 hr 59 min 51 sec) 
Heartbeat CPU 0 instructions: 102000002 cycles: 61860834 heartbeat IPC: 1.2669 cumulative IPC: 1.28095 (Simulation time: 2 hr 1 min 10 sec) 
Heartbeat CPU 0 instructions: 103000001 cycles: 62636084 heartbeat IPC: 1.28991 cumulative IPC: 1.28112 (Simulation time: 2 hr 2 min 29 sec) 
Heartbeat CPU 0 instructions: 104000000 cycles: 63420814 heartbeat IPC: 1.27432 cumulative IPC: 1.28099 (Simulation time: 2 hr 3 min 50 sec) 
Heartbeat CPU 0 instructions: 105000001 cycles: 64199818 heartbeat IPC: 1.28369 cumulative IPC: 1.28104 (Simulation time: 2 hr 5 min 8 sec) 
Heartbeat CPU 0 instructions: 106000000 cycles: 64976294 heartbeat IPC: 1.28787 cumulative IPC: 1.28116 (Simulation time: 2 hr 6 min 24 sec) 
Heartbeat CPU 0 instructions: 107000000 cycles: 65762194 heartbeat IPC: 1.27243 cumulative IPC: 1.28101 (Simulation time: 2 hr 7 min 42 sec) 
Heartbeat CPU 0 instructions: 108000000 cycles: 66546162 heartbeat IPC: 1.27556 cumulative IPC: 1.28091 (Simulation time: 2 hr 9 min 0 sec) 
Heartbeat CPU 0 instructions: 109000000 cycles: 67333377 heartbeat IPC: 1.2703 cumulative IPC: 1.28073 (Simulation time: 2 hr 10 min 15 sec) 
Heartbeat CPU 0 instructions: 110000002 cycles: 68125423 heartbeat IPC: 1.26256 cumulative IPC: 1.28042 (Simulation time: 2 hr 11 min 38 sec) 
Heartbeat CPU 0 instructions: 111000000 cycles: 68907043 heartbeat IPC: 1.27939 cumulative IPC: 1.28041 (Simulation time: 2 hr 12 min 57 sec) 
Heartbeat CPU 0 instructions: 112000000 cycles: 69694855 heartbeat IPC: 1.26934 cumulative IPC: 1.28023 (Simulation time: 2 hr 14 min 16 sec) 
Heartbeat CPU 0 instructions: 113000003 cycles: 70484338 heartbeat IPC: 1.26666 cumulative IPC: 1.28001 (Simulation time: 2 hr 15 min 36 sec) 
Heartbeat CPU 0 instructions: 114000000 cycles: 71261551 heartbeat IPC: 1.28664 cumulative IPC: 1.28011 (Simulation time: 2 hr 16 min 53 sec) 
Heartbeat CPU 0 instructions: 115000000 cycles: 72035175 heartbeat IPC: 1.29262 cumulative IPC: 1.2803 (Simulation time: 2 hr 18 min 7 sec) 
Heartbeat CPU 0 instructions: 116000000 cycles: 72811836 heartbeat IPC: 1.28756 cumulative IPC: 1.28041 (Simulation time: 2 hr 19 min 18 sec) 
Heartbeat CPU 0 instructions: 117000000 cycles: 73588582 heartbeat IPC: 1.28742 cumulative IPC: 1.28052 (Simulation time: 2 hr 20 min 26 sec) 
Heartbeat CPU 0 instructions: 118000000 cycles: 74360974 heartbeat IPC: 1.29468 cumulative IPC: 1.28072 (Simulation time: 2 hr 21 min 41 sec) 
Heartbeat CPU 0 instructions: 119000000 cycles: 75138947 heartbeat IPC: 1.28539 cumulative IPC: 1.28079 (Simulation time: 2 hr 22 min 49 sec) 
Heartbeat CPU 0 instructions: 120000000 cycles: 75925220 heartbeat IPC: 1.27182 cumulative IPC: 1.28066 (Simulation time: 2 hr 24 min 2 sec) 
Heartbeat CPU 0 instructions: 121000000 cycles: 76704694 heartbeat IPC: 1.28292 cumulative IPC: 1.28069 (Simulation time: 2 hr 25 min 18 sec) 
Heartbeat CPU 0 instructions: 122000003 cycles: 77479258 heartbeat IPC: 1.29105 cumulative IPC: 1.28084 (Simulation time: 2 hr 26 min 31 sec) 
Heartbeat CPU 0 instructions: 123000001 cycles: 78259092 heartbeat IPC: 1.28232 cumulative IPC: 1.28086 (Simulation time: 2 hr 27 min 41 sec) 
Heartbeat CPU 0 instructions: 124000000 cycles: 79041188 heartbeat IPC: 1.27861 cumulative IPC: 1.28083 (Simulation time: 2 hr 28 min 54 sec) 
Heartbeat CPU 0 instructions: 125000001 cycles: 79829353 heartbeat IPC: 1.26877 cumulative IPC: 1.28066 (Simulation time: 2 hr 30 min 6 sec) 
Heartbeat CPU 0 instructions: 126000003 cycles: 80615172 heartbeat IPC: 1.27256 cumulative IPC: 1.28056 (Simulation time: 2 hr 31 min 14 sec) 
Heartbeat CPU 0 instructions: 127000003 cycles: 81390331 heartbeat IPC: 1.29006 cumulative IPC: 1.28068 (Simulation time: 2 hr 32 min 31 sec) 
Heartbeat CPU 0 instructions: 128000000 cycles: 82164630 heartbeat IPC: 1.29149 cumulative IPC: 1.28082 (Simulation time: 2 hr 33 min 46 sec) 
Heartbeat CPU 0 instructions: 129000002 cycles: 82940877 heartbeat IPC: 1.28825 cumulative IPC: 1.28091 (Simulation time: 2 hr 34 min 58 sec) 
Heartbeat CPU 0 instructions: 130000003 cycles: 83728768 heartbeat IPC: 1.26921 cumulative IPC: 1.28076 (Simulation time: 2 hr 36 min 12 sec) 
Heartbeat CPU 0 instructions: 131000003 cycles: 84507548 heartbeat IPC: 1.28406 cumulative IPC: 1.2808 (Simulation time: 2 hr 37 min 26 sec) 
Heartbeat CPU 0 instructions: 132000000 cycles: 85280138 heartbeat IPC: 1.29434 cumulative IPC: 1.28097 (Simulation time: 2 hr 38 min 45 sec) 
Heartbeat CPU 0 instructions: 133000001 cycles: 86055724 heartbeat IPC: 1.28935 cumulative IPC: 1.28107 (Simulation time: 2 hr 39 min 56 sec) 
Heartbeat CPU 0 instructions: 134000003 cycles: 86847012 heartbeat IPC: 1.26376 cumulative IPC: 1.28086 (Simulation time: 2 hr 41 min 14 sec) 
Heartbeat CPU 0 instructions: 135000003 cycles: 87624902 heartbeat IPC: 1.28553 cumulative IPC: 1.28091 (Simulation time: 2 hr 42 min 32 sec) 
Heartbeat CPU 0 instructions: 136000000 cycles: 88402304 heartbeat IPC: 1.28633 cumulative IPC: 1.28098 (Simulation time: 2 hr 43 min 48 sec) 
Heartbeat CPU 0 instructions: 137000003 cycles: 89174284 heartbeat IPC: 1.29537 cumulative IPC: 1.28114 (Simulation time: 2 hr 45 min 0 sec) 
Heartbeat CPU 0 instructions: 138000000 cycles: 89945312 heartbeat IPC: 1.29697 cumulative IPC: 1.28132 (Simulation time: 2 hr 46 min 21 sec) 
Heartbeat CPU 0 instructions: 139000000 cycles: 90724563 heartbeat IPC: 1.28328 cumulative IPC: 1.28134 (Simulation time: 2 hr 47 min 36 sec) 
Heartbeat CPU 0 instructions: 140000000 cycles: 91512519 heartbeat IPC: 1.26911 cumulative IPC: 1.2812 (Simulation time: 2 hr 48 min 50 sec) 
Heartbeat CPU 0 instructions: 141000000 cycles: 92293472 heartbeat IPC: 1.28049 cumulative IPC: 1.28119 (Simulation time: 2 hr 50 min 7 sec) 
Heartbeat CPU 0 instructions: 142000003 cycles: 93072975 heartbeat IPC: 1.28287 cumulative IPC: 1.28121 (Simulation time: 2 hr 51 min 19 sec) 
Heartbeat CPU 0 instructions: 143000001 cycles: 93854826 heartbeat IPC: 1.27901 cumulative IPC: 1.28119 (Simulation time: 2 hr 52 min 30 sec) 
Heartbeat CPU 0 instructions: 144000000 cycles: 94636692 heartbeat IPC: 1.27899 cumulative IPC: 1.28117 (Simulation time: 2 hr 53 min 36 sec) 
Heartbeat CPU 0 instructions: 145000001 cycles: 95418515 heartbeat IPC: 1.27906 cumulative IPC: 1.28114 (Simulation time: 2 hr 54 min 48 sec) 
Heartbeat CPU 0 instructions: 146000000 cycles: 96202256 heartbeat IPC: 1.27593 cumulative IPC: 1.28109 (Simulation time: 2 hr 55 min 59 sec) 
Heartbeat CPU 0 instructions: 147000000 cycles: 96979548 heartbeat IPC: 1.28652 cumulative IPC: 1.28114 (Simulation time: 2 hr 57 min 7 sec) 
Heartbeat CPU 0 instructions: 148000000 cycles: 97756798 heartbeat IPC: 1.28659 cumulative IPC: 1.2812 (Simulation time: 2 hr 58 min 13 sec) 
Heartbeat CPU 0 instructions: 149000001 cycles: 98531067 heartbeat IPC: 1.29154 cumulative IPC: 1.2813 (Simulation time: 2 hr 59 min 21 sec) 
Heartbeat CPU 0 instructions: 150000000 cycles: 99317968 heartbeat IPC: 1.27081 cumulative IPC: 1.2812 (Simulation time: 3 hr 0 min 29 sec) 
Finished CPU 0 instructions: 100000003 cycles: 78051993 cummulative IPC: 1.2812 (Simulation time: 3 hr 0 min 29 sec) 

ChampSim completed all CPUs

Region of Interest Statistics

CPU 0 cummulative IPC: 1.2812 instructions: 100000003 cycles: 78051993
LLC TOTAL     ACCESS:     381300  HIT:      64434  MISS:     316866
LLC LOAD      ACCESS:      29160  HIT:         60  MISS:      29100
LLC RFO       ACCESS:          0  HIT:          0  MISS:          0
LLC PREFETCH  ACCESS:     288382  HIT:        638  MISS:     287744
LLC WRITEBACK ACCESS:      63758  HIT:      63736  MISS:         22
