
*** ChampSim Multicore Out-of-Order Simulator ***

Warmup Instructions: 50000000
Simulation Instructions: 100000000
Configuration: 2
Number of CPUs: 1
LLC sets: 2048
LLC ways: 16
Off-chip DRAM Channels: 1 Width: 64-bit Data Rate: 1600 MT/s

CPU 0 runs /datasets/cs240c-wi22-a00-public/data/Assignment2-gz/soplex_205B.trace.gz
CPU 0 L1D next line prefetcher
CPU 0 L2C IP-based stride prefetcher
Initialize LRU replacement state
Heartbeat CPU 0 instructions: 1000000 cycles: 395620 heartbeat IPC: 2.52768 cumulative IPC: 2.52768 (Simulation time: 0 hr 1 min 3 sec) 
Heartbeat CPU 0 instructions: 2000002 cycles: 928232 heartbeat IPC: 1.87754 cumulative IPC: 2.15464 (Simulation time: 0 hr 2 min 18 sec) 
Heartbeat CPU 0 instructions: 3000000 cycles: 1400022 heartbeat IPC: 2.11958 cumulative IPC: 2.14282 (Simulation time: 0 hr 3 min 52 sec) 
Heartbeat CPU 0 instructions: 4000000 cycles: 1761209 heartbeat IPC: 2.76865 cumulative IPC: 2.27117 (Simulation time: 0 hr 5 min 6 sec) 
Heartbeat CPU 0 instructions: 5000003 cycles: 2204599 heartbeat IPC: 2.25536 cumulative IPC: 2.26799 (Simulation time: 0 hr 6 min 24 sec) 
Heartbeat CPU 0 instructions: 6000003 cycles: 2624755 heartbeat IPC: 2.38007 cumulative IPC: 2.28593 (Simulation time: 0 hr 7 min 41 sec) 
Heartbeat CPU 0 instructions: 7000000 cycles: 3009192 heartbeat IPC: 2.6012 cumulative IPC: 2.32621 (Simulation time: 0 hr 8 min 42 sec) 
Heartbeat CPU 0 instructions: 8000000 cycles: 3401040 heartbeat IPC: 2.55201 cumulative IPC: 2.35222 (Simulation time: 0 hr 9 min 47 sec) 
Heartbeat CPU 0 instructions: 9000003 cycles: 3925266 heartbeat IPC: 1.90758 cumulative IPC: 2.29284 (Simulation time: 0 hr 10 min 58 sec) 
Heartbeat CPU 0 instructions: 10000000 cycles: 4410313 heartbeat IPC: 2.06165 cumulative IPC: 2.26741 (Simulation time: 0 hr 12 min 22 sec) 
Heartbeat CPU 0 instructions: 11000001 cycles: 4780169 heartbeat IPC: 2.70376 cumulative IPC: 2.30117 (Simulation time: 0 hr 13 min 33 sec) 
Heartbeat CPU 0 instructions: 12000000 cycles: 5217366 heartbeat IPC: 2.2873 cumulative IPC: 2.30001 (Simulation time: 0 hr 14 min 57 sec) 
Heartbeat CPU 0 instructions: 13000001 cycles: 5640553 heartbeat IPC: 2.36302 cumulative IPC: 2.30474 (Simulation time: 0 hr 16 min 29 sec) 
Heartbeat CPU 0 instructions: 14000003 cycles: 6024877 heartbeat IPC: 2.60198 cumulative IPC: 2.3237 (Simulation time: 0 hr 17 min 39 sec) 
Heartbeat CPU 0 instructions: 15000000 cycles: 6434887 heartbeat IPC: 2.43896 cumulative IPC: 2.33104 (Simulation time: 0 hr 18 min 47 sec) 
Heartbeat CPU 0 instructions: 16000000 cycles: 6966680 heartbeat IPC: 1.88043 cumulative IPC: 2.29665 (Simulation time: 0 hr 20 min 9 sec) 
Heartbeat CPU 0 instructions: 17000001 cycles: 7523030 heartbeat IPC: 1.79743 cumulative IPC: 2.25973 (Simulation time: 0 hr 21 min 54 sec) 
Heartbeat CPU 0 instructions: 18000002 cycles: 8035057 heartbeat IPC: 1.95302 cumulative IPC: 2.24018 (Simulation time: 0 hr 23 min 22 sec) 
Heartbeat CPU 0 instructions: 19000002 cycles: 8710248 heartbeat IPC: 1.48106 cumulative IPC: 2.18134 (Simulation time: 0 hr 25 min 6 sec) 
Heartbeat CPU 0 instructions: 20000000 cycles: 9466339 heartbeat IPC: 1.32259 cumulative IPC: 2.11275 (Simulation time: 0 hr 26 min 48 sec) 
Heartbeat CPU 0 instructions: 21000001 cycles: 9912759 heartbeat IPC: 2.24005 cumulative IPC: 2.11848 (Simulation time: 0 hr 28 min 29 sec) 
Heartbeat CPU 0 instructions: 22000000 cycles: 10357984 heartbeat IPC: 2.24605 cumulative IPC: 2.12397 (Simulation time: 0 hr 30 min 5 sec) 
Heartbeat CPU 0 instructions: 23000000 cycles: 10799606 heartbeat IPC: 2.26438 cumulative IPC: 2.12971 (Simulation time: 0 hr 31 min 43 sec) 
Heartbeat CPU 0 instructions: 24000000 cycles: 11300501 heartbeat IPC: 1.99643 cumulative IPC: 2.1238 (Simulation time: 0 hr 33 min 21 sec) 
Heartbeat CPU 0 instructions: 25000002 cycles: 11841506 heartbeat IPC: 1.84842 cumulative IPC: 2.11122 (Simulation time: 0 hr 35 min 3 sec) 
Heartbeat CPU 0 instructions: 26000002 cycles: 12481099 heartbeat IPC: 1.56349 cumulative IPC: 2.08315 (Simulation time: 0 hr 36 min 58 sec) 
Heartbeat CPU 0 instructions: 27000003 cycles: 13067629 heartbeat IPC: 1.70494 cumulative IPC: 2.06617 (Simulation time: 0 hr 38 min 31 sec) 
Heartbeat CPU 0 instructions: 28000000 cycles: 13837983 heartbeat IPC: 1.2981 cumulative IPC: 2.02342 (Simulation time: 0 hr 40 min 25 sec) 
Heartbeat CPU 0 instructions: 29000002 cycles: 14419780 heartbeat IPC: 1.71882 cumulative IPC: 2.01113 (Simulation time: 0 hr 41 min 56 sec) 
Heartbeat CPU 0 instructions: 30000003 cycles: 14840102 heartbeat IPC: 2.37913 cumulative IPC: 2.02155 (Simulation time: 0 hr 43 min 17 sec) 
Heartbeat CPU 0 instructions: 31000003 cycles: 15306588 heartbeat IPC: 2.14369 cumulative IPC: 2.02527 (Simulation time: 0 hr 44 min 47 sec) 
Heartbeat CPU 0 instructions: 32000000 cycles: 15813964 heartbeat IPC: 1.97092 cumulative IPC: 2.02353 (Simulation time: 0 hr 46 min 26 sec) 
Heartbeat CPU 0 instructions: 33000000 cycles: 16347134 heartbeat IPC: 1.87557 cumulative IPC: 2.0187 (Simulation time: 0 hr 48 min 3 sec) 
Heartbeat CPU 0 instructions: 34000003 cycles: 16846458 heartbeat IPC: 2.00271 cumulative IPC: 2.01823 (Simulation time: 0 hr 49 min 24 sec) 
Heartbeat CPU 0 instructions: 35000003 cycles: 17214382 heartbeat IPC: 2.71795 cumulative IPC: 2.03318 (Simulation time: 0 hr 50 min 47 sec) 
Heartbeat CPU 0 instructions: 36000000 cycles: 17656108 heartbeat IPC: 2.26384 cumulative IPC: 2.03895 (Simulation time: 0 hr 52 min 11 sec) 
Heartbeat CPU 0 instructions: 37000000 cycles: 18078054 heartbeat IPC: 2.36997 cumulative IPC: 2.04668 (Simulation time: 0 hr 53 min 36 sec) 
Heartbeat CPU 0 instructions: 38000003 cycles: 18462092 heartbeat IPC: 2.60392 cumulative IPC: 2.05827 (Simulation time: 0 hr 54 min 47 sec) 
Heartbeat CPU 0 instructions: 39000003 cycles: 18851095 heartbeat IPC: 2.57067 cumulative IPC: 2.06885 (Simulation time: 0 hr 55 min 58 sec) 
Heartbeat CPU 0 instructions: 40000000 cycles: 19374761 heartbeat IPC: 1.90961 cumulative IPC: 2.06454 (Simulation time: 0 hr 57 min 14 sec) 
Heartbeat CPU 0 instructions: 41000000 cycles: 19770170 heartbeat IPC: 2.52903 cumulative IPC: 2.07383 (Simulation time: 0 hr 58 min 40 sec) 
Heartbeat CPU 0 instructions: 42000001 cycles: 20188459 heartbeat IPC: 2.39069 cumulative IPC: 2.0804 (Simulation time: 1 hr 0 min 1 sec) 
Heartbeat CPU 0 instructions: 43000001 cycles: 20613230 heartbeat IPC: 2.35421 cumulative IPC: 2.08604 (Simulation time: 1 hr 1 min 29 sec) 
Heartbeat CPU 0 instructions: 44000000 cycles: 21012933 heartbeat IPC: 2.50186 cumulative IPC: 2.09395 (Simulation time: 1 hr 2 min 47 sec) 
Heartbeat CPU 0 instructions: 45000001 cycles: 21397644 heartbeat IPC: 2.59936 cumulative IPC: 2.10304 (Simulation time: 1 hr 4 min 0 sec) 
Heartbeat CPU 0 instructions: 46000000 cycles: 21878158 heartbeat IPC: 2.0811 cumulative IPC: 2.10255 (Simulation time: 1 hr 5 min 23 sec) 
Heartbeat CPU 0 instructions: 47000000 cycles: 22337037 heartbeat IPC: 2.17922 cumulative IPC: 2.10413 (Simulation time: 1 hr 6 min 58 sec) 
Heartbeat CPU 0 instructions: 48000000 cycles: 22778705 heartbeat IPC: 2.26414 cumulative IPC: 2.10723 (Simulation time: 1 hr 8 min 21 sec) 
Heartbeat CPU 0 instructions: 49000001 cycles: 23194223 heartbeat IPC: 2.40664 cumulative IPC: 2.1126 (Simulation time: 1 hr 9 min 38 sec) 
Heartbeat CPU 0 instructions: 50000003 cycles: 23616050 heartbeat IPC: 2.37064 cumulative IPC: 2.1172 (Simulation time: 1 hr 11 min 4 sec) 

Warmup complete CPU 0 instructions: 50000003 cycles: 23616050 (Simulation time: 1 hr 11 min 4 sec) 

Heartbeat CPU 0 instructions: 51000003 cycles: 26332696 heartbeat IPC: 0.368101 cumulative IPC: 0.368101 (Simulation time: 1 hr 12 min 34 sec) 
Heartbeat CPU 0 instructions: 52000000 cycles: 27710803 heartbeat IPC: 0.725631 cumulative IPC: 0.488429 (Simulation time: 1 hr 13 min 43 sec) 
Heartbeat CPU 0 instructions: 53000003 cycles: 30916357 heartbeat IPC: 0.31196 cumulative IPC: 0.410942 (Simulation time: 1 hr 15 min 22 sec) 
Heartbeat CPU 0 instructions: 54000001 cycles: 33667625 heartbeat IPC: 0.363468 cumulative IPC: 0.397947 (Simulation time: 1 hr 17 min 11 sec) 
Heartbeat CPU 0 instructions: 55000001 cycles: 37016197 heartbeat IPC: 0.298635 cumulative IPC: 0.37313 (Simulation time: 1 hr 19 min 10 sec) 
Heartbeat CPU 0 instructions: 56000000 cycles: 38876535 heartbeat IPC: 0.537536 cumulative IPC: 0.393172 (Simulation time: 1 hr 20 min 49 sec) 
Heartbeat CPU 0 instructions: 57000000 cycles: 42842817 heartbeat IPC: 0.252125 cumulative IPC: 0.364076 (Simulation time: 1 hr 22 min 58 sec) 
Heartbeat CPU 0 instructions: 58000000 cycles: 45385616 heartbeat IPC: 0.393267 cumulative IPC: 0.367485 (Simulation time: 1 hr 24 min 27 sec) 
Heartbeat CPU 0 instructions: 59000001 cycles: 46754265 heartbeat IPC: 0.730648 cumulative IPC: 0.388967 (Simulation time: 1 hr 25 min 35 sec) 
Heartbeat CPU 0 instructions: 60000000 cycles: 49958661 heartbeat IPC: 0.312071 cumulative IPC: 0.379613 (Simulation time: 1 hr 27 min 19 sec) 
Heartbeat CPU 0 instructions: 61000003 cycles: 52725172 heartbeat IPC: 0.361467 cumulative IPC: 0.377888 (Simulation time: 1 hr 29 min 5 sec) 
Heartbeat CPU 0 instructions: 62000002 cycles: 56202118 heartbeat IPC: 0.287608 cumulative IPC: 0.368255 (Simulation time: 1 hr 30 min 59 sec) 
Heartbeat CPU 0 instructions: 63000001 cycles: 57828466 heartbeat IPC: 0.614874 cumulative IPC: 0.379979 (Simulation time: 1 hr 32 min 31 sec) 
Heartbeat CPU 0 instructions: 64000000 cycles: 62288207 heartbeat IPC: 0.224228 cumulative IPC: 0.362017 (Simulation time: 1 hr 34 min 51 sec) 
Heartbeat CPU 0 instructions: 65000001 cycles: 64369629 heartbeat IPC: 0.480441 cumulative IPC: 0.368066 (Simulation time: 1 hr 36 min 9 sec) 
Heartbeat CPU 0 instructions: 66000000 cycles: 65726611 heartbeat IPC: 0.736929 cumulative IPC: 0.379952 (Simulation time: 1 hr 37 min 15 sec) 
Heartbeat CPU 0 instructions: 67000003 cycles: 68943844 heartbeat IPC: 0.310827 cumulative IPC: 0.375046 (Simulation time: 1 hr 38 min 56 sec) 
Heartbeat CPU 0 instructions: 68000000 cycles: 71796267 heartbeat IPC: 0.350578 cumulative IPC: 0.373597 (Simulation time: 1 hr 40 min 50 sec) 
Heartbeat CPU 0 instructions: 69000001 cycles: 74882736 heartbeat IPC: 0.323995 cumulative IPC: 0.370611 (Simulation time: 1 hr 42 min 42 sec) 
Heartbeat CPU 0 instructions: 70000000 cycles: 76788209 heartbeat IPC: 0.524804 cumulative IPC: 0.376137 (Simulation time: 1 hr 44 min 17 sec) 
Heartbeat CPU 0 instructions: 71000001 cycles: 80769913 heartbeat IPC: 0.251149 cumulative IPC: 0.367429 (Simulation time: 1 hr 46 min 32 sec) 
Heartbeat CPU 0 instructions: 72000000 cycles: 83287682 heartbeat IPC: 0.397177 cumulative IPC: 0.368684 (Simulation time: 1 hr 47 min 52 sec) 
Heartbeat CPU 0 instructions: 73000000 cycles: 84656967 heartbeat IPC: 0.730308 cumulative IPC: 0.376796 (Simulation time: 1 hr 49 min 2 sec) 
Heartbeat CPU 0 instructions: 74000001 cycles: 87853413 heartbeat IPC: 0.312848 cumulative IPC: 0.373614 (Simulation time: 1 hr 50 min 46 sec) 
Heartbeat CPU 0 instructions: 75000003 cycles: 90629120 heartbeat IPC: 0.360269 cumulative IPC: 0.373062 (Simulation time: 1 hr 52 min 37 sec) 
Heartbeat CPU 0 instructions: 76000000 cycles: 94127671 heartbeat IPC: 0.285832 cumulative IPC: 0.368733 (Simulation time: 1 hr 54 min 37 sec) 
Heartbeat CPU 0 instructions: 77000000 cycles: 95703548 heartbeat IPC: 0.634567 cumulative IPC: 0.374545 (Simulation time: 1 hr 56 min 6 sec) 
Heartbeat CPU 0 instructions: 78000003 cycles: 100299262 heartbeat IPC: 0.217595 cumulative IPC: 0.365139 (Simulation time: 1 hr 58 min 28 sec) 
Heartbeat CPU 0 instructions: 79000002 cycles: 102261099 heartbeat IPC: 0.509726 cumulative IPC: 0.368745 (Simulation time: 1 hr 59 min 42 sec) 
Heartbeat CPU 0 instructions: 80000000 cycles: 103612203 heartbeat IPC: 0.740134 cumulative IPC: 0.375018 (Simulation time: 2 hr 0 min 54 sec) 
Heartbeat CPU 0 instructions: 81000000 cycles: 106814659 heartbeat IPC: 0.31226 cumulative IPC: 0.372602 (Simulation time: 2 hr 2 min 35 sec) 
Heartbeat CPU 0 instructions: 82000000 cycles: 109682427 heartbeat IPC: 0.348703 cumulative IPC: 0.371806 (Simulation time: 2 hr 4 min 24 sec) 
Heartbeat CPU 0 instructions: 83000000 cycles: 113256071 heartbeat IPC: 0.279826 cumulative IPC: 0.368139 (Simulation time: 2 hr 6 min 21 sec) 
Heartbeat CPU 0 instructions: 84000000 cycles: 114983796 heartbeat IPC: 0.578796 cumulative IPC: 0.372123 (Simulation time: 2 hr 7 min 57 sec) 
Heartbeat CPU 0 instructions: 85000000 cycles: 119652966 heartbeat IPC: 0.214171 cumulative IPC: 0.364443 (Simulation time: 2 hr 10 min 15 sec) 
Heartbeat CPU 0 instructions: 86000002 cycles: 121221786 heartbeat IPC: 0.637423 cumulative IPC: 0.368831 (Simulation time: 2 hr 11 min 25 sec) 
Heartbeat CPU 0 instructions: 87000002 cycles: 122558137 heartbeat IPC: 0.748306 cumulative IPC: 0.373956 (Simulation time: 2 hr 12 min 34 sec) 
Heartbeat CPU 0 instructions: 88000000 cycles: 125739554 heartbeat IPC: 0.314325 cumulative IPC: 0.372098 (Simulation time: 2 hr 14 min 18 sec) 
Heartbeat CPU 0 instructions: 89000003 cycles: 128981661 heartbeat IPC: 0.308442 cumulative IPC: 0.37014 (Simulation time: 2 hr 16 min 15 sec) 
Heartbeat CPU 0 instructions: 90000001 cycles: 132281044 heartbeat IPC: 0.303086 cumulative IPC: 0.368104 (Simulation time: 2 hr 18 min 4 sec) 
Heartbeat CPU 0 instructions: 91000003 cycles: 134292657 heartbeat IPC: 0.497115 cumulative IPC: 0.370449 (Simulation time: 2 hr 19 min 45 sec) 
Heartbeat CPU 0 instructions: 92000000 cycles: 138703800 heartbeat IPC: 0.226698 cumulative IPC: 0.364939 (Simulation time: 2 hr 21 min 57 sec) 
Heartbeat CPU 0 instructions: 93000000 cycles: 140125559 heartbeat IPC: 0.703354 cumulative IPC: 0.369069 (Simulation time: 2 hr 23 min 0 sec) 
Heartbeat CPU 0 instructions: 94000000 cycles: 141609785 heartbeat IPC: 0.673752 cumulative IPC: 0.372901 (Simulation time: 2 hr 24 min 12 sec) 
Heartbeat CPU 0 instructions: 95000002 cycles: 144832556 heartbeat IPC: 0.310293 cumulative IPC: 0.371237 (Simulation time: 2 hr 25 min 59 sec) 
Heartbeat CPU 0 instructions: 96000000 cycles: 147370380 heartbeat IPC: 0.394038 cumulative IPC: 0.371704 (Simulation time: 2 hr 27 min 44 sec) 
Heartbeat CPU 0 instructions: 97000003 cycles: 150229457 heartbeat IPC: 0.349764 cumulative IPC: 0.371209 (Simulation time: 2 hr 29 min 20 sec) 
Heartbeat CPU 0 instructions: 98000003 cycles: 152753084 heartbeat IPC: 0.396255 cumulative IPC: 0.371698 (Simulation time: 2 hr 31 min 7 sec) 
Heartbeat CPU 0 instructions: 99000000 cycles: 156629092 heartbeat IPC: 0.257997 cumulative IPC: 0.368385 (Simulation time: 2 hr 33 min 8 sec) 
Heartbeat CPU 0 instructions: 100000000 cycles: 158037685 heartbeat IPC: 0.709928 cumulative IPC: 0.371964 (Simulation time: 2 hr 34 min 17 sec) 
Heartbeat CPU 0 instructions: 101000003 cycles: 160227931 heartbeat IPC: 0.456571 cumulative IPC: 0.37332 (Simulation time: 2 hr 35 min 38 sec) 
Heartbeat CPU 0 instructions: 102000001 cycles: 163253244 heartbeat IPC: 0.330544 cumulative IPC: 0.372394 (Simulation time: 2 hr 37 min 27 sec) 
Heartbeat CPU 0 instructions: 103000000 cycles: 165206259 heartbeat IPC: 0.512028 cumulative IPC: 0.37432 (Simulation time: 2 hr 39 min 10 sec) 
Heartbeat CPU 0 instructions: 104000000 cycles: 173404337 heartbeat IPC: 0.12198 cumulative IPC: 0.360509 (Simulation time: 2 hr 41 min 19 sec) 
Heartbeat CPU 0 instructions: 105000000 cycles: 175349544 heartbeat IPC: 0.514084 cumulative IPC: 0.362478 (Simulation time: 2 hr 43 min 19 sec) 
Heartbeat CPU 0 instructions: 106000002 cycles: 179479020 heartbeat IPC: 0.242162 cumulative IPC: 0.35929 (Simulation time: 2 hr 45 min 29 sec) 
Heartbeat CPU 0 instructions: 107000003 cycles: 183579559 heartbeat IPC: 0.243871 cumulative IPC: 0.356331 (Simulation time: 2 hr 47 min 21 sec) 
Heartbeat CPU 0 instructions: 108000000 cycles: 186902844 heartbeat IPC: 0.300906 cumulative IPC: 0.355203 (Simulation time: 2 hr 49 min 6 sec) 
Heartbeat CPU 0 instructions: 109000000 cycles: 190334599 heartbeat IPC: 0.291396 cumulative IPC: 0.35389 (Simulation time: 2 hr 50 min 49 sec) 
Heartbeat CPU 0 instructions: 110000003 cycles: 193780395 heartbeat IPC: 0.29021 cumulative IPC: 0.3526 (Simulation time: 2 hr 52 min 15 sec) 
Heartbeat CPU 0 instructions: 111000002 cycles: 197335561 heartbeat IPC: 0.281281 cumulative IPC: 0.351141 (Simulation time: 2 hr 53 min 57 sec) 
Heartbeat CPU 0 instructions: 112000000 cycles: 199998294 heartbeat IPC: 0.375553 cumulative IPC: 0.351509 (Simulation time: 2 hr 55 min 23 sec) 
Heartbeat CPU 0 instructions: 113000001 cycles: 203383571 heartbeat IPC: 0.295397 cumulative IPC: 0.350453 (Simulation time: 2 hr 57 min 3 sec) 
Heartbeat CPU 0 instructions: 114000000 cycles: 205394293 heartbeat IPC: 0.497333 cumulative IPC: 0.352077 (Simulation time: 2 hr 58 min 32 sec) 
Heartbeat CPU 0 instructions: 115000002 cycles: 206689381 heartbeat IPC: 0.77215 cumulative IPC: 0.355049 (Simulation time: 2 hr 59 min 47 sec) 
Heartbeat CPU 0 instructions: 116000000 cycles: 208228994 heartbeat IPC: 0.649513 cumulative IPC: 0.357505 (Simulation time: 3 hr 0 min 52 sec) 
Heartbeat CPU 0 instructions: 117000001 cycles: 210972491 heartbeat IPC: 0.364499 cumulative IPC: 0.357607 (Simulation time: 3 hr 2 min 18 sec) 
Heartbeat CPU 0 instructions: 118000002 cycles: 213458455 heartbeat IPC: 0.402259 cumulative IPC: 0.358192 (Simulation time: 3 hr 3 min 42 sec) 
Heartbeat CPU 0 instructions: 119000001 cycles: 215306243 heartbeat IPC: 0.541187 cumulative IPC: 0.359956 (Simulation time: 3 hr 4 min 54 sec) 
Heartbeat CPU 0 instructions: 120000000 cycles: 217995368 heartbeat IPC: 0.371868 cumulative IPC: 0.360121 (Simulation time: 3 hr 6 min 0 sec) 
Heartbeat CPU 0 instructions: 121000000 cycles: 219869644 heartbeat IPC: 0.533539 cumulative IPC: 0.361777 (Simulation time: 3 hr 7 min 7 sec) 
Heartbeat CPU 0 instructions: 122000000 cycles: 224499453 heartbeat IPC: 0.215992 cumulative IPC: 0.358417 (Simulation time: 3 hr 8 min 37 sec) 
Heartbeat CPU 0 instructions: 123000001 cycles: 225925468 heartbeat IPC: 0.701256 cumulative IPC: 0.360833 (Simulation time: 3 hr 9 min 21 sec) 
Heartbeat CPU 0 instructions: 124000000 cycles: 227288423 heartbeat IPC: 0.733699 cumulative IPC: 0.363329 (Simulation time: 3 hr 10 min 9 sec) 
Heartbeat CPU 0 instructions: 125000000 cycles: 230421785 heartbeat IPC: 0.319146 cumulative IPC: 0.362659 (Simulation time: 3 hr 11 min 19 sec) 
Heartbeat CPU 0 instructions: 126000000 cycles: 233738542 heartbeat IPC: 0.301499 cumulative IPC: 0.361694 (Simulation time: 3 hr 12 min 30 sec) 
Heartbeat CPU 0 instructions: 127000003 cycles: 236277169 heartbeat IPC: 0.393915 cumulative IPC: 0.362078 (Simulation time: 3 hr 13 min 22 sec) 
Heartbeat CPU 0 instructions: 128000000 cycles: 239425608 heartbeat IPC: 0.317617 cumulative IPC: 0.36143 (Simulation time: 3 hr 14 min 27 sec) 
Heartbeat CPU 0 instructions: 129000000 cycles: 242639187 heartbeat IPC: 0.31118 cumulative IPC: 0.360692 (Simulation time: 3 hr 15 min 27 sec) 
Heartbeat CPU 0 instructions: 130000003 cycles: 244043824 heartbeat IPC: 0.71193 cumulative IPC: 0.362931 (Simulation time: 3 hr 16 min 5 sec) 
Heartbeat CPU 0 instructions: 131000001 cycles: 246979731 heartbeat IPC: 0.34061 cumulative IPC: 0.362637 (Simulation time: 3 hr 16 min 55 sec) 
Heartbeat CPU 0 instructions: 132000000 cycles: 249709170 heartbeat IPC: 0.366375 cumulative IPC: 0.362682 (Simulation time: 3 hr 17 min 55 sec) 
Heartbeat CPU 0 instructions: 133000000 cycles: 252613339 heartbeat IPC: 0.344333 cumulative IPC: 0.36245 (Simulation time: 3 hr 18 min 48 sec) 
Heartbeat CPU 0 instructions: 134000002 cycles: 254233631 heartbeat IPC: 0.617174 cumulative IPC: 0.364239 (Simulation time: 3 hr 19 min 36 sec) 
Heartbeat CPU 0 instructions: 135000001 cycles: 258748157 heartbeat IPC: 0.221507 cumulative IPC: 0.361499 (Simulation time: 3 hr 20 min 53 sec) 
Heartbeat CPU 0 instructions: 136000000 cycles: 260799101 heartbeat IPC: 0.48758 cumulative IPC: 0.362589 (Simulation time: 3 hr 21 min 33 sec) 
Heartbeat CPU 0 instructions: 137000000 cycles: 262153870 heartbeat IPC: 0.738133 cumulative IPC: 0.364722 (Simulation time: 3 hr 22 min 12 sec) 
Heartbeat CPU 0 instructions: 138000003 cycles: 265368120 heartbeat IPC: 0.311116 cumulative IPC: 0.364009 (Simulation time: 3 hr 23 min 8 sec) 
Heartbeat CPU 0 instructions: 139000000 cycles: 268168355 heartbeat IPC: 0.357112 cumulative IPC: 0.36393 (Simulation time: 3 hr 24 min 4 sec) 
Heartbeat CPU 0 instructions: 140000000 cycles: 270259667 heartbeat IPC: 0.478169 cumulative IPC: 0.364899 (Simulation time: 3 hr 24 min 42 sec) 
Heartbeat CPU 0 instructions: 141000002 cycles: 272118258 heartbeat IPC: 0.538043 cumulative IPC: 0.366194 (Simulation time: 3 hr 25 min 22 sec) 
Heartbeat CPU 0 instructions: 142000000 cycles: 276311206 heartbeat IPC: 0.238495 cumulative IPC: 0.364075 (Simulation time: 3 hr 26 min 13 sec) 
Heartbeat CPU 0 instructions: 143000003 cycles: 278667163 heartbeat IPC: 0.424457 cumulative IPC: 0.364633 (Simulation time: 3 hr 26 min 45 sec) 
Heartbeat CPU 0 instructions: 144000000 cycles: 280034221 heartbeat IPC: 0.731496 cumulative IPC: 0.366589 (Simulation time: 3 hr 27 min 13 sec) 
Heartbeat CPU 0 instructions: 145000000 cycles: 283253784 heartbeat IPC: 0.310601 cumulative IPC: 0.365894 (Simulation time: 3 hr 27 min 51 sec) 
Heartbeat CPU 0 instructions: 146000003 cycles: 286056360 heartbeat IPC: 0.356816 cumulative IPC: 0.365797 (Simulation time: 3 hr 28 min 31 sec) 
Heartbeat CPU 0 instructions: 147000000 cycles: 288184997 heartbeat IPC: 0.469783 cumulative IPC: 0.366634 (Simulation time: 3 hr 29 min 0 sec) 
Heartbeat CPU 0 instructions: 148000000 cycles: 289766640 heartbeat IPC: 0.632254 cumulative IPC: 0.368213 (Simulation time: 3 hr 29 min 31 sec) 
Heartbeat CPU 0 instructions: 149000002 cycles: 294370356 heartbeat IPC: 0.217216 cumulative IPC: 0.365645 (Simulation time: 3 hr 30 min 18 sec) 
Heartbeat CPU 0 instructions: 150000002 cycles: 296343357 heartbeat IPC: 0.506842 cumulative IPC: 0.366667 (Simulation time: 3 hr 30 min 43 sec) 
Finished CPU 0 instructions: 100000002 cycles: 272727309 cummulative IPC: 0.366667 (Simulation time: 3 hr 30 min 43 sec) 

ChampSim completed all CPUs

Region of Interest Statistics

CPU 0 cummulative IPC: 0.366667 instructions: 100000002 cycles: 272727309
LLC TOTAL     ACCESS:    8469014  HIT:    4336861  MISS:    4132153
LLC LOAD      ACCESS:    2185565  HIT:     834259  MISS:    1351306
LLC RFO       ACCESS:     775977  HIT:     248015  MISS:     527962
LLC PREFETCH  ACCESS:    3421460  HIT:    1168598  MISS:    2252862
LLC WRITEBACK ACCESS:    2086012  HIT:    2085989  MISS:         23
