
*** ChampSim Multicore Out-of-Order Simulator ***

Warmup Instructions: 50000000
Simulation Instructions: 100000000
Configuration: 2
Number of CPUs: 1
LLC sets: 2048
LLC ways: 16
Off-chip DRAM Channels: 1 Width: 64-bit Data Rate: 1600 MT/s

CPU 0 runs /datasets/cs240c-wi22-a00-public/data/Assignment2-gz/bzip2_281B.trace.gz
CPU 0 L1D next line prefetcher
CPU 0 L2C IP-based stride prefetcher
Initialize LRU replacement state
Heartbeat CPU 0 instructions: 1000000 cycles: 445877 heartbeat IPC: 2.24277 cumulative IPC: 2.24277 (Simulation time: 0 hr 1 min 3 sec) 
Heartbeat CPU 0 instructions: 2000003 cycles: 900175 heartbeat IPC: 2.20121 cumulative IPC: 2.22179 (Simulation time: 0 hr 2 min 4 sec) 
Heartbeat CPU 0 instructions: 3000002 cycles: 1315031 heartbeat IPC: 2.41047 cumulative IPC: 2.28132 (Simulation time: 0 hr 3 min 8 sec) 
Heartbeat CPU 0 instructions: 4000000 cycles: 1753525 heartbeat IPC: 2.28053 cumulative IPC: 2.28112 (Simulation time: 0 hr 4 min 13 sec) 
Heartbeat CPU 0 instructions: 5000002 cycles: 2175518 heartbeat IPC: 2.36971 cumulative IPC: 2.2983 (Simulation time: 0 hr 5 min 23 sec) 
Heartbeat CPU 0 instructions: 6000000 cycles: 2666173 heartbeat IPC: 2.03809 cumulative IPC: 2.25042 (Simulation time: 0 hr 6 min 37 sec) 
Heartbeat CPU 0 instructions: 7000001 cycles: 3193444 heartbeat IPC: 1.89656 cumulative IPC: 2.19199 (Simulation time: 0 hr 7 min 49 sec) 
Heartbeat CPU 0 instructions: 8000000 cycles: 3726041 heartbeat IPC: 1.87759 cumulative IPC: 2.14705 (Simulation time: 0 hr 8 min 59 sec) 
Heartbeat CPU 0 instructions: 9000000 cycles: 4232461 heartbeat IPC: 1.97465 cumulative IPC: 2.12642 (Simulation time: 0 hr 10 min 7 sec) 
Heartbeat CPU 0 instructions: 10000002 cycles: 4685400 heartbeat IPC: 2.20781 cumulative IPC: 2.13429 (Simulation time: 0 hr 11 min 9 sec) 
Heartbeat CPU 0 instructions: 11000000 cycles: 5132835 heartbeat IPC: 2.23496 cumulative IPC: 2.14307 (Simulation time: 0 hr 12 min 13 sec) 
Heartbeat CPU 0 instructions: 12000000 cycles: 5613885 heartbeat IPC: 2.07879 cumulative IPC: 2.13756 (Simulation time: 0 hr 13 min 25 sec) 
Heartbeat CPU 0 instructions: 13000001 cycles: 6025390 heartbeat IPC: 2.43011 cumulative IPC: 2.15754 (Simulation time: 0 hr 14 min 40 sec) 
Heartbeat CPU 0 instructions: 14000003 cycles: 6483824 heartbeat IPC: 2.18134 cumulative IPC: 2.15922 (Simulation time: 0 hr 15 min 57 sec) 
Heartbeat CPU 0 instructions: 15000003 cycles: 6944126 heartbeat IPC: 2.17249 cumulative IPC: 2.1601 (Simulation time: 0 hr 17 min 12 sec) 
Heartbeat CPU 0 instructions: 16000000 cycles: 7340160 heartbeat IPC: 2.52503 cumulative IPC: 2.17979 (Simulation time: 0 hr 18 min 26 sec) 
Heartbeat CPU 0 instructions: 17000000 cycles: 7729326 heartbeat IPC: 2.5696 cumulative IPC: 2.19942 (Simulation time: 0 hr 19 min 37 sec) 
Heartbeat CPU 0 instructions: 18000002 cycles: 8185544 heartbeat IPC: 2.19194 cumulative IPC: 2.199 (Simulation time: 0 hr 20 min 56 sec) 
Heartbeat CPU 0 instructions: 19000000 cycles: 8631474 heartbeat IPC: 2.2425 cumulative IPC: 2.20125 (Simulation time: 0 hr 22 min 11 sec) 
Heartbeat CPU 0 instructions: 20000000 cycles: 9076504 heartbeat IPC: 2.24704 cumulative IPC: 2.20349 (Simulation time: 0 hr 23 min 28 sec) 
Heartbeat CPU 0 instructions: 21000000 cycles: 9463556 heartbeat IPC: 2.58363 cumulative IPC: 2.21904 (Simulation time: 0 hr 24 min 46 sec) 
Heartbeat CPU 0 instructions: 22000003 cycles: 9839331 heartbeat IPC: 2.66118 cumulative IPC: 2.23592 (Simulation time: 0 hr 26 min 3 sec) 
Heartbeat CPU 0 instructions: 23000001 cycles: 10292310 heartbeat IPC: 2.2076 cumulative IPC: 2.23468 (Simulation time: 0 hr 27 min 20 sec) 
Heartbeat CPU 0 instructions: 24000000 cycles: 10747009 heartbeat IPC: 2.19925 cumulative IPC: 2.23318 (Simulation time: 0 hr 28 min 35 sec) 
Heartbeat CPU 0 instructions: 25000001 cycles: 11090424 heartbeat IPC: 2.91193 cumulative IPC: 2.2542 (Simulation time: 0 hr 29 min 55 sec) 
Heartbeat CPU 0 instructions: 26000003 cycles: 11528040 heartbeat IPC: 2.28511 cumulative IPC: 2.25537 (Simulation time: 0 hr 31 min 13 sec) 
Heartbeat CPU 0 instructions: 27000003 cycles: 12000618 heartbeat IPC: 2.11605 cumulative IPC: 2.24988 (Simulation time: 0 hr 32 min 30 sec) 
Heartbeat CPU 0 instructions: 28000000 cycles: 12327116 heartbeat IPC: 3.0628 cumulative IPC: 2.27142 (Simulation time: 0 hr 33 min 30 sec) 
Heartbeat CPU 0 instructions: 29000001 cycles: 12623993 heartbeat IPC: 3.3684 cumulative IPC: 2.29721 (Simulation time: 0 hr 34 min 29 sec) 
Heartbeat CPU 0 instructions: 30000000 cycles: 12920867 heartbeat IPC: 3.36843 cumulative IPC: 2.32183 (Simulation time: 0 hr 35 min 26 sec) 
Heartbeat CPU 0 instructions: 31000000 cycles: 13263218 heartbeat IPC: 2.92098 cumulative IPC: 2.33729 (Simulation time: 0 hr 36 min 28 sec) 
Heartbeat CPU 0 instructions: 32000000 cycles: 13609744 heartbeat IPC: 2.88579 cumulative IPC: 2.35126 (Simulation time: 0 hr 37 min 32 sec) 
Heartbeat CPU 0 instructions: 33000001 cycles: 13968261 heartbeat IPC: 2.78927 cumulative IPC: 2.3625 (Simulation time: 0 hr 38 min 35 sec) 
Heartbeat CPU 0 instructions: 34000001 cycles: 14311852 heartbeat IPC: 2.91044 cumulative IPC: 2.37565 (Simulation time: 0 hr 39 min 40 sec) 
Heartbeat CPU 0 instructions: 35000003 cycles: 14652936 heartbeat IPC: 2.93183 cumulative IPC: 2.3886 (Simulation time: 0 hr 40 min 44 sec) 
Heartbeat CPU 0 instructions: 36000000 cycles: 14991300 heartbeat IPC: 2.95539 cumulative IPC: 2.40139 (Simulation time: 0 hr 41 min 45 sec) 
Heartbeat CPU 0 instructions: 37000000 cycles: 15330417 heartbeat IPC: 2.94883 cumulative IPC: 2.4135 (Simulation time: 0 hr 42 min 43 sec) 
Heartbeat CPU 0 instructions: 38000002 cycles: 15672473 heartbeat IPC: 2.9235 cumulative IPC: 2.42463 (Simulation time: 0 hr 43 min 45 sec) 
Heartbeat CPU 0 instructions: 39000001 cycles: 16012188 heartbeat IPC: 2.94364 cumulative IPC: 2.43564 (Simulation time: 0 hr 44 min 45 sec) 
Heartbeat CPU 0 instructions: 40000000 cycles: 16368535 heartbeat IPC: 2.80625 cumulative IPC: 2.44371 (Simulation time: 0 hr 45 min 51 sec) 
Heartbeat CPU 0 instructions: 41000000 cycles: 16712007 heartbeat IPC: 2.91145 cumulative IPC: 2.45333 (Simulation time: 0 hr 46 min 55 sec) 
Heartbeat CPU 0 instructions: 42000002 cycles: 17053615 heartbeat IPC: 2.92734 cumulative IPC: 2.46282 (Simulation time: 0 hr 48 min 1 sec) 
Heartbeat CPU 0 instructions: 43000000 cycles: 17389652 heartbeat IPC: 2.97586 cumulative IPC: 2.47273 (Simulation time: 0 hr 49 min 4 sec) 
Heartbeat CPU 0 instructions: 44000000 cycles: 17730411 heartbeat IPC: 2.93463 cumulative IPC: 2.48161 (Simulation time: 0 hr 50 min 6 sec) 
Heartbeat CPU 0 instructions: 45000001 cycles: 18067184 heartbeat IPC: 2.96936 cumulative IPC: 2.4907 (Simulation time: 0 hr 51 min 11 sec) 
Heartbeat CPU 0 instructions: 46000000 cycles: 18420615 heartbeat IPC: 2.8294 cumulative IPC: 2.4972 (Simulation time: 0 hr 52 min 14 sec) 
Heartbeat CPU 0 instructions: 47000003 cycles: 18770274 heartbeat IPC: 2.85994 cumulative IPC: 2.50396 (Simulation time: 0 hr 53 min 15 sec) 
Heartbeat CPU 0 instructions: 48000000 cycles: 19120184 heartbeat IPC: 2.85787 cumulative IPC: 2.51044 (Simulation time: 0 hr 54 min 19 sec) 
Heartbeat CPU 0 instructions: 49000003 cycles: 19475586 heartbeat IPC: 2.81372 cumulative IPC: 2.51597 (Simulation time: 0 hr 55 min 28 sec) 
Heartbeat CPU 0 instructions: 50000003 cycles: 19823837 heartbeat IPC: 2.87149 cumulative IPC: 2.52222 (Simulation time: 0 hr 56 min 32 sec) 

Warmup complete CPU 0 instructions: 50000003 cycles: 19823837 (Simulation time: 0 hr 56 min 32 sec) 

Heartbeat CPU 0 instructions: 51000002 cycles: 20781296 heartbeat IPC: 1.04443 cumulative IPC: 1.04443 (Simulation time: 0 hr 57 min 45 sec) 
Heartbeat CPU 0 instructions: 52000000 cycles: 21748062 heartbeat IPC: 1.03437 cumulative IPC: 1.03938 (Simulation time: 0 hr 59 min 3 sec) 
Heartbeat CPU 0 instructions: 53000001 cycles: 22727508 heartbeat IPC: 1.02099 cumulative IPC: 1.03317 (Simulation time: 1 hr 0 min 19 sec) 
Heartbeat CPU 0 instructions: 54000003 cycles: 23709103 heartbeat IPC: 1.01875 cumulative IPC: 1.02953 (Simulation time: 1 hr 1 min 37 sec) 
Heartbeat CPU 0 instructions: 55000000 cycles: 24673178 heartbeat IPC: 1.03726 cumulative IPC: 1.03107 (Simulation time: 1 hr 2 min 51 sec) 
Heartbeat CPU 0 instructions: 56000000 cycles: 25649358 heartbeat IPC: 1.0244 cumulative IPC: 1.02995 (Simulation time: 1 hr 4 min 12 sec) 
Heartbeat CPU 0 instructions: 57000002 cycles: 26617969 heartbeat IPC: 1.03241 cumulative IPC: 1.0303 (Simulation time: 1 hr 5 min 23 sec) 
Heartbeat CPU 0 instructions: 58000003 cycles: 27591409 heartbeat IPC: 1.02729 cumulative IPC: 1.02992 (Simulation time: 1 hr 6 min 40 sec) 
Heartbeat CPU 0 instructions: 59000003 cycles: 28620503 heartbeat IPC: 0.971729 cumulative IPC: 1.02311 (Simulation time: 1 hr 8 min 2 sec) 
Heartbeat CPU 0 instructions: 60000000 cycles: 29829772 heartbeat IPC: 0.826943 cumulative IPC: 0.999407 (Simulation time: 1 hr 9 min 36 sec) 
Heartbeat CPU 0 instructions: 61000000 cycles: 31037566 heartbeat IPC: 0.827956 cumulative IPC: 0.98094 (Simulation time: 1 hr 11 min 5 sec) 
Heartbeat CPU 0 instructions: 62000003 cycles: 32262529 heartbeat IPC: 0.816354 cumulative IPC: 0.964732 (Simulation time: 1 hr 12 min 35 sec) 
Heartbeat CPU 0 instructions: 63000001 cycles: 33493311 heartbeat IPC: 0.81249 cumulative IPC: 0.951024 (Simulation time: 1 hr 13 min 59 sec) 
Heartbeat CPU 0 instructions: 64000000 cycles: 34814471 heartbeat IPC: 0.75691 cumulative IPC: 0.933916 (Simulation time: 1 hr 15 min 19 sec) 
Heartbeat CPU 0 instructions: 65000001 cycles: 36018525 heartbeat IPC: 0.830528 cumulative IPC: 0.92623 (Simulation time: 1 hr 16 min 46 sec) 
Heartbeat CPU 0 instructions: 66000003 cycles: 37220272 heartbeat IPC: 0.832124 cumulative IPC: 0.919729 (Simulation time: 1 hr 18 min 7 sec) 
Heartbeat CPU 0 instructions: 67000000 cycles: 38431439 heartbeat IPC: 0.825647 cumulative IPC: 0.913605 (Simulation time: 1 hr 19 min 34 sec) 
Heartbeat CPU 0 instructions: 68000000 cycles: 39745081 heartbeat IPC: 0.761242 cumulative IPC: 0.903558 (Simulation time: 1 hr 20 min 53 sec) 
Heartbeat CPU 0 instructions: 69000000 cycles: 40941538 heartbeat IPC: 0.835801 cumulative IPC: 0.899719 (Simulation time: 1 hr 22 min 22 sec) 
Heartbeat CPU 0 instructions: 70000002 cycles: 42143752 heartbeat IPC: 0.8318 cumulative IPC: 0.896061 (Simulation time: 1 hr 23 min 48 sec) 
Heartbeat CPU 0 instructions: 71000003 cycles: 43350382 heartbeat IPC: 0.828755 cumulative IPC: 0.892609 (Simulation time: 1 hr 25 min 6 sec) 
Heartbeat CPU 0 instructions: 72000000 cycles: 44558383 heartbeat IPC: 0.827811 cumulative IPC: 0.889444 (Simulation time: 1 hr 26 min 35 sec) 
Heartbeat CPU 0 instructions: 73000002 cycles: 45861778 heartbeat IPC: 0.767229 cumulative IPC: 0.883326 (Simulation time: 1 hr 27 min 53 sec) 
Heartbeat CPU 0 instructions: 74000000 cycles: 47061267 heartbeat IPC: 0.833687 cumulative IPC: 0.88114 (Simulation time: 1 hr 29 min 20 sec) 
Heartbeat CPU 0 instructions: 75000001 cycles: 48262656 heartbeat IPC: 0.832371 cumulative IPC: 0.87908 (Simulation time: 1 hr 30 min 46 sec) 
Heartbeat CPU 0 instructions: 76000000 cycles: 49471953 heartbeat IPC: 0.826926 cumulative IPC: 0.876953 (Simulation time: 1 hr 32 min 11 sec) 
Heartbeat CPU 0 instructions: 77000001 cycles: 50729057 heartbeat IPC: 0.79548 cumulative IPC: 0.873639 (Simulation time: 1 hr 33 min 31 sec) 
Heartbeat CPU 0 instructions: 78000003 cycles: 51894074 heartbeat IPC: 0.858358 cumulative IPC: 0.873084 (Simulation time: 1 hr 34 min 36 sec) 
Heartbeat CPU 0 instructions: 79000000 cycles: 52812954 heartbeat IPC: 1.08828 cumulative IPC: 0.879078 (Simulation time: 1 hr 35 min 44 sec) 
Heartbeat CPU 0 instructions: 80000000 cycles: 53716403 heartbeat IPC: 1.10687 cumulative IPC: 0.88515 (Simulation time: 1 hr 36 min 51 sec) 
Heartbeat CPU 0 instructions: 81000000 cycles: 54562143 heartbeat IPC: 1.1824 cumulative IPC: 0.892387 (Simulation time: 1 hr 37 min 57 sec) 
Heartbeat CPU 0 instructions: 82000001 cycles: 55453977 heartbeat IPC: 1.12129 cumulative IPC: 0.898116 (Simulation time: 1 hr 39 min 7 sec) 
Heartbeat CPU 0 instructions: 83000000 cycles: 56377869 heartbeat IPC: 1.08238 cumulative IPC: 0.902773 (Simulation time: 1 hr 40 min 20 sec) 
Heartbeat CPU 0 instructions: 84000000 cycles: 57294555 heartbeat IPC: 1.09089 cumulative IPC: 0.907375 (Simulation time: 1 hr 41 min 28 sec) 
Heartbeat CPU 0 instructions: 85000002 cycles: 58229900 heartbeat IPC: 1.06913 cumulative IPC: 0.911314 (Simulation time: 1 hr 42 min 47 sec) 
Heartbeat CPU 0 instructions: 86000002 cycles: 59158923 heartbeat IPC: 1.0764 cumulative IPC: 0.915213 (Simulation time: 1 hr 44 min 19 sec) 
Heartbeat CPU 0 instructions: 87000002 cycles: 60087931 heartbeat IPC: 1.07642 cumulative IPC: 0.918933 (Simulation time: 1 hr 45 min 50 sec) 
Heartbeat CPU 0 instructions: 88000000 cycles: 61135251 heartbeat IPC: 0.954816 cumulative IPC: 0.919843 (Simulation time: 1 hr 47 min 18 sec) 
Heartbeat CPU 0 instructions: 89000002 cycles: 62225285 heartbeat IPC: 0.917404 cumulative IPC: 0.91978 (Simulation time: 1 hr 48 min 47 sec) 
Heartbeat CPU 0 instructions: 90000001 cycles: 63312472 heartbeat IPC: 0.919804 cumulative IPC: 0.91978 (Simulation time: 1 hr 50 min 17 sec) 
Heartbeat CPU 0 instructions: 91000001 cycles: 64407237 heartbeat IPC: 0.913438 cumulative IPC: 0.919625 (Simulation time: 1 hr 51 min 50 sec) 
Heartbeat CPU 0 instructions: 92000000 cycles: 65491278 heartbeat IPC: 0.922473 cumulative IPC: 0.919692 (Simulation time: 1 hr 53 min 18 sec) 
Heartbeat CPU 0 instructions: 93000001 cycles: 66573646 heartbeat IPC: 0.923901 cumulative IPC: 0.91979 (Simulation time: 1 hr 54 min 44 sec) 
Heartbeat CPU 0 instructions: 94000001 cycles: 67653779 heartbeat IPC: 0.925812 cumulative IPC: 0.919926 (Simulation time: 1 hr 56 min 11 sec) 
Heartbeat CPU 0 instructions: 95000000 cycles: 68738029 heartbeat IPC: 0.922296 cumulative IPC: 0.919978 (Simulation time: 1 hr 57 min 33 sec) 
Heartbeat CPU 0 instructions: 96000000 cycles: 69817956 heartbeat IPC: 0.925988 cumulative IPC: 0.920108 (Simulation time: 1 hr 58 min 57 sec) 
Heartbeat CPU 0 instructions: 97000002 cycles: 70900585 heartbeat IPC: 0.923679 cumulative IPC: 0.920184 (Simulation time: 2 hr 0 min 28 sec) 
Heartbeat CPU 0 instructions: 98000002 cycles: 71983146 heartbeat IPC: 0.923735 cumulative IPC: 0.920258 (Simulation time: 2 hr 1 min 49 sec) 
Heartbeat CPU 0 instructions: 99000000 cycles: 73064737 heartbeat IPC: 0.924562 cumulative IPC: 0.920345 (Simulation time: 2 hr 3 min 19 sec) 
Heartbeat CPU 0 instructions: 100000000 cycles: 74150326 heartbeat IPC: 0.921159 cumulative IPC: 0.920361 (Simulation time: 2 hr 4 min 46 sec) 
Heartbeat CPU 0 instructions: 101000000 cycles: 75237305 heartbeat IPC: 0.919981 cumulative IPC: 0.920354 (Simulation time: 2 hr 6 min 12 sec) 
Heartbeat CPU 0 instructions: 102000000 cycles: 76327447 heartbeat IPC: 0.917312 cumulative IPC: 0.920295 (Simulation time: 2 hr 7 min 41 sec) 
Heartbeat CPU 0 instructions: 103000002 cycles: 77416167 heartbeat IPC: 0.918512 cumulative IPC: 0.920261 (Simulation time: 2 hr 9 min 6 sec) 
Heartbeat CPU 0 instructions: 104000000 cycles: 78505022 heartbeat IPC: 0.918394 cumulative IPC: 0.920227 (Simulation time: 2 hr 10 min 31 sec) 
Heartbeat CPU 0 instructions: 105000003 cycles: 79598952 heartbeat IPC: 0.914138 cumulative IPC: 0.920115 (Simulation time: 2 hr 11 min 58 sec) 
Heartbeat CPU 0 instructions: 106000002 cycles: 80695143 heartbeat IPC: 0.912249 cumulative IPC: 0.919974 (Simulation time: 2 hr 13 min 26 sec) 
Heartbeat CPU 0 instructions: 107000001 cycles: 81778764 heartbeat IPC: 0.922831 cumulative IPC: 0.920024 (Simulation time: 2 hr 14 min 50 sec) 
Heartbeat CPU 0 instructions: 108000000 cycles: 82873747 heartbeat IPC: 0.913255 cumulative IPC: 0.919906 (Simulation time: 2 hr 16 min 13 sec) 
Heartbeat CPU 0 instructions: 109000001 cycles: 83968599 heartbeat IPC: 0.913366 cumulative IPC: 0.919794 (Simulation time: 2 hr 17 min 42 sec) 
Heartbeat CPU 0 instructions: 110000002 cycles: 85067582 heartbeat IPC: 0.909933 cumulative IPC: 0.919628 (Simulation time: 2 hr 19 min 13 sec) 
Heartbeat CPU 0 instructions: 111000000 cycles: 86155161 heartbeat IPC: 0.919472 cumulative IPC: 0.919626 (Simulation time: 2 hr 20 min 40 sec) 
Heartbeat CPU 0 instructions: 112000000 cycles: 87246235 heartbeat IPC: 0.916528 cumulative IPC: 0.919576 (Simulation time: 2 hr 22 min 11 sec) 
Heartbeat CPU 0 instructions: 113000002 cycles: 88336932 heartbeat IPC: 0.916847 cumulative IPC: 0.919532 (Simulation time: 2 hr 23 min 38 sec) 
Heartbeat CPU 0 instructions: 114000001 cycles: 89431428 heartbeat IPC: 0.913662 cumulative IPC: 0.91944 (Simulation time: 2 hr 25 min 5 sec) 
Heartbeat CPU 0 instructions: 115000001 cycles: 90518574 heartbeat IPC: 0.91984 cumulative IPC: 0.919446 (Simulation time: 2 hr 26 min 36 sec) 
Heartbeat CPU 0 instructions: 116000000 cycles: 91607954 heartbeat IPC: 0.917952 cumulative IPC: 0.919423 (Simulation time: 2 hr 28 min 1 sec) 
Heartbeat CPU 0 instructions: 117000001 cycles: 92697268 heartbeat IPC: 0.91801 cumulative IPC: 0.919402 (Simulation time: 2 hr 29 min 26 sec) 
Heartbeat CPU 0 instructions: 118000000 cycles: 93784951 heartbeat IPC: 0.919385 cumulative IPC: 0.919402 (Simulation time: 2 hr 30 min 56 sec) 
Heartbeat CPU 0 instructions: 119000000 cycles: 94874898 heartbeat IPC: 0.917476 cumulative IPC: 0.919374 (Simulation time: 2 hr 32 min 21 sec) 
Heartbeat CPU 0 instructions: 120000000 cycles: 95969289 heartbeat IPC: 0.91375 cumulative IPC: 0.919293 (Simulation time: 2 hr 33 min 45 sec) 
Heartbeat CPU 0 instructions: 121000000 cycles: 97060857 heartbeat IPC: 0.916113 cumulative IPC: 0.919248 (Simulation time: 2 hr 35 min 13 sec) 
Heartbeat CPU 0 instructions: 122000000 cycles: 98157889 heartbeat IPC: 0.91155 cumulative IPC: 0.91914 (Simulation time: 2 hr 36 min 34 sec) 
Heartbeat CPU 0 instructions: 123000001 cycles: 99255657 heartbeat IPC: 0.91094 cumulative IPC: 0.919027 (Simulation time: 2 hr 38 min 2 sec) 
Heartbeat CPU 0 instructions: 124000000 cycles: 100355864 heartbeat IPC: 0.908919 cumulative IPC: 0.918889 (Simulation time: 2 hr 39 min 27 sec) 
Heartbeat CPU 0 instructions: 125000002 cycles: 101449149 heartbeat IPC: 0.914676 cumulative IPC: 0.918833 (Simulation time: 2 hr 40 min 57 sec) 
Heartbeat CPU 0 instructions: 126000002 cycles: 102540713 heartbeat IPC: 0.916117 cumulative IPC: 0.918797 (Simulation time: 2 hr 42 min 25 sec) 
Heartbeat CPU 0 instructions: 127000003 cycles: 103632587 heartbeat IPC: 0.915857 cumulative IPC: 0.918759 (Simulation time: 2 hr 43 min 50 sec) 
Heartbeat CPU 0 instructions: 128000000 cycles: 104724071 heartbeat IPC: 0.916181 cumulative IPC: 0.918725 (Simulation time: 2 hr 45 min 15 sec) 
Heartbeat CPU 0 instructions: 129000001 cycles: 105816057 heartbeat IPC: 0.915764 cumulative IPC: 0.918688 (Simulation time: 2 hr 46 min 38 sec) 
Heartbeat CPU 0 instructions: 130000001 cycles: 106904649 heartbeat IPC: 0.918618 cumulative IPC: 0.918687 (Simulation time: 2 hr 47 min 58 sec) 
Heartbeat CPU 0 instructions: 131000001 cycles: 107999530 heartbeat IPC: 0.913341 cumulative IPC: 0.91862 (Simulation time: 2 hr 49 min 23 sec) 
Heartbeat CPU 0 instructions: 132000000 cycles: 109093782 heartbeat IPC: 0.913865 cumulative IPC: 0.918562 (Simulation time: 2 hr 50 min 43 sec) 
Heartbeat CPU 0 instructions: 133000002 cycles: 110201990 heartbeat IPC: 0.902359 cumulative IPC: 0.918364 (Simulation time: 2 hr 52 min 3 sec) 
Heartbeat CPU 0 instructions: 134000000 cycles: 111297207 heartbeat IPC: 0.913059 cumulative IPC: 0.9183 (Simulation time: 2 hr 53 min 21 sec) 
Heartbeat CPU 0 instructions: 135000003 cycles: 112399287 heartbeat IPC: 0.907378 cumulative IPC: 0.91817 (Simulation time: 2 hr 54 min 39 sec) 
Heartbeat CPU 0 instructions: 136000000 cycles: 113503964 heartbeat IPC: 0.905239 cumulative IPC: 0.918018 (Simulation time: 2 hr 55 min 55 sec) 
Heartbeat CPU 0 instructions: 137000001 cycles: 114604562 heartbeat IPC: 0.908598 cumulative IPC: 0.917908 (Simulation time: 2 hr 57 min 13 sec) 
Heartbeat CPU 0 instructions: 138000000 cycles: 115717269 heartbeat IPC: 0.898708 cumulative IPC: 0.917685 (Simulation time: 2 hr 58 min 29 sec) 
Heartbeat CPU 0 instructions: 139000002 cycles: 116350745 heartbeat IPC: 1.57859 cumulative IPC: 0.922023 (Simulation time: 2 hr 59 min 42 sec) 
Heartbeat CPU 0 instructions: 140000000 cycles: 116982955 heartbeat IPC: 1.58175 cumulative IPC: 0.926315 (Simulation time: 3 hr 0 min 50 sec) 
Heartbeat CPU 0 instructions: 141000000 cycles: 117614813 heartbeat IPC: 1.58263 cumulative IPC: 0.930556 (Simulation time: 3 hr 1 min 51 sec) 
Heartbeat CPU 0 instructions: 142000002 cycles: 118249510 heartbeat IPC: 1.57556 cumulative IPC: 0.934715 (Simulation time: 3 hr 2 min 52 sec) 
Heartbeat CPU 0 instructions: 143000002 cycles: 118894998 heartbeat IPC: 1.54922 cumulative IPC: 0.938719 (Simulation time: 3 hr 3 min 50 sec) 
Heartbeat CPU 0 instructions: 144000000 cycles: 119541604 heartbeat IPC: 1.54653 cumulative IPC: 0.94266 (Simulation time: 3 hr 4 min 51 sec) 
Heartbeat CPU 0 instructions: 145000001 cycles: 120189292 heartbeat IPC: 1.54395 cumulative IPC: 0.946541 (Simulation time: 3 hr 5 min 45 sec) 
Heartbeat CPU 0 instructions: 146000002 cycles: 120835726 heartbeat IPC: 1.54695 cumulative IPC: 0.950383 (Simulation time: 3 hr 6 min 40 sec) 
Heartbeat CPU 0 instructions: 147000002 cycles: 122193557 heartbeat IPC: 0.736469 cumulative IPC: 0.947546 (Simulation time: 3 hr 7 min 40 sec) 
Heartbeat CPU 0 instructions: 148000000 cycles: 122715960 heartbeat IPC: 1.91423 cumulative IPC: 0.952454 (Simulation time: 3 hr 8 min 24 sec) 
Heartbeat CPU 0 instructions: 149000000 cycles: 123233995 heartbeat IPC: 1.93037 cumulative IPC: 0.957353 (Simulation time: 3 hr 9 min 7 sec) 
Heartbeat CPU 0 instructions: 150000003 cycles: 123747680 heartbeat IPC: 1.94672 cumulative IPC: 0.962243 (Simulation time: 3 hr 9 min 55 sec) 
Finished CPU 0 instructions: 100000000 cycles: 103923843 cummulative IPC: 0.962243 (Simulation time: 3 hr 9 min 55 sec) 

ChampSim completed all CPUs

Region of Interest Statistics

CPU 0 cummulative IPC: 0.962243 instructions: 100000000 cycles: 103923843
LLC TOTAL     ACCESS:     678817  HIT:     547785  MISS:     131032
LLC LOAD      ACCESS:     201686  HIT:     199980  MISS:       1706
LLC RFO       ACCESS:      77430  HIT:       9753  MISS:      67677
LLC PREFETCH  ACCESS:     319033  HIT:     257717  MISS:      61316
LLC WRITEBACK ACCESS:      80668  HIT:      80335  MISS:        333
