
*** ChampSim Multicore Out-of-Order Simulator ***

Warmup Instructions: 50000000
Simulation Instructions: 100000000
Configuration: 2
Number of CPUs: 1
LLC sets: 2048
LLC ways: 16
Off-chip DRAM Channels: 1 Width: 64-bit Data Rate: 1600 MT/s

CPU 0 runs /datasets/cs240c-wi22-a00-public/data/Assignment2-gz/milc_360B.trace.gz
CPU 0 L1D next line prefetcher
CPU 0 L2C IP-based stride prefetcher
Initialize LRU replacement state
Heartbeat CPU 0 instructions: 1000001 cycles: 549511 heartbeat IPC: 1.8198 cumulative IPC: 1.8198 (Simulation time: 0 hr 1 min 24 sec) 
Heartbeat CPU 0 instructions: 2000003 cycles: 1099026 heartbeat IPC: 1.81979 cumulative IPC: 1.8198 (Simulation time: 0 hr 2 min 27 sec) 
Heartbeat CPU 0 instructions: 3000001 cycles: 1648486 heartbeat IPC: 1.81997 cumulative IPC: 1.81985 (Simulation time: 0 hr 3 min 38 sec) 
Heartbeat CPU 0 instructions: 4000000 cycles: 2197959 heartbeat IPC: 1.81992 cumulative IPC: 1.81987 (Simulation time: 0 hr 4 min 44 sec) 
Heartbeat CPU 0 instructions: 5000002 cycles: 2747468 heartbeat IPC: 1.81981 cumulative IPC: 1.81986 (Simulation time: 0 hr 5 min 50 sec) 
Heartbeat CPU 0 instructions: 6000001 cycles: 3296983 heartbeat IPC: 1.81978 cumulative IPC: 1.81985 (Simulation time: 0 hr 6 min 54 sec) 
Heartbeat CPU 0 instructions: 7000000 cycles: 3846462 heartbeat IPC: 1.8199 cumulative IPC: 1.81985 (Simulation time: 0 hr 8 min 13 sec) 
Heartbeat CPU 0 instructions: 8000000 cycles: 4395923 heartbeat IPC: 1.81997 cumulative IPC: 1.81987 (Simulation time: 0 hr 9 min 41 sec) 
Heartbeat CPU 0 instructions: 9000001 cycles: 4945436 heartbeat IPC: 1.8198 cumulative IPC: 1.81986 (Simulation time: 0 hr 10 min 47 sec) 
Heartbeat CPU 0 instructions: 10000001 cycles: 5494911 heartbeat IPC: 1.81992 cumulative IPC: 1.81987 (Simulation time: 0 hr 11 min 57 sec) 
Heartbeat CPU 0 instructions: 11000001 cycles: 6044376 heartbeat IPC: 1.81995 cumulative IPC: 1.81987 (Simulation time: 0 hr 13 min 22 sec) 
Heartbeat CPU 0 instructions: 12000000 cycles: 6593855 heartbeat IPC: 1.8199 cumulative IPC: 1.81988 (Simulation time: 0 hr 14 min 51 sec) 
Heartbeat CPU 0 instructions: 13000001 cycles: 7143384 heartbeat IPC: 1.81974 cumulative IPC: 1.81987 (Simulation time: 0 hr 16 min 20 sec) 
Heartbeat CPU 0 instructions: 14000003 cycles: 7692851 heartbeat IPC: 1.81995 cumulative IPC: 1.81987 (Simulation time: 0 hr 17 min 48 sec) 
Heartbeat CPU 0 instructions: 15000003 cycles: 8242328 heartbeat IPC: 1.81991 cumulative IPC: 1.81987 (Simulation time: 0 hr 19 min 17 sec) 
Heartbeat CPU 0 instructions: 16000000 cycles: 8791808 heartbeat IPC: 1.8199 cumulative IPC: 1.81988 (Simulation time: 0 hr 20 min 44 sec) 
Heartbeat CPU 0 instructions: 17000001 cycles: 9341333 heartbeat IPC: 1.81976 cumulative IPC: 1.81987 (Simulation time: 0 hr 22 min 15 sec) 
Heartbeat CPU 0 instructions: 18000001 cycles: 9890809 heartbeat IPC: 1.81992 cumulative IPC: 1.81987 (Simulation time: 0 hr 23 min 43 sec) 
Heartbeat CPU 0 instructions: 19000000 cycles: 10440288 heartbeat IPC: 1.8199 cumulative IPC: 1.81987 (Simulation time: 0 hr 25 min 11 sec) 
Heartbeat CPU 0 instructions: 20000000 cycles: 10989424 heartbeat IPC: 1.82104 cumulative IPC: 1.81993 (Simulation time: 0 hr 26 min 39 sec) 
Heartbeat CPU 0 instructions: 21000000 cycles: 11536405 heartbeat IPC: 1.82822 cumulative IPC: 1.82032 (Simulation time: 0 hr 28 min 0 sec) 
Heartbeat CPU 0 instructions: 22000003 cycles: 12083409 heartbeat IPC: 1.82815 cumulative IPC: 1.82068 (Simulation time: 0 hr 29 min 28 sec) 
Heartbeat CPU 0 instructions: 23000003 cycles: 12630401 heartbeat IPC: 1.82818 cumulative IPC: 1.821 (Simulation time: 0 hr 30 min 53 sec) 
Heartbeat CPU 0 instructions: 24000000 cycles: 13177380 heartbeat IPC: 1.82822 cumulative IPC: 1.8213 (Simulation time: 0 hr 32 min 20 sec) 
Heartbeat CPU 0 instructions: 25000003 cycles: 13724416 heartbeat IPC: 1.82804 cumulative IPC: 1.82157 (Simulation time: 0 hr 33 min 47 sec) 
Heartbeat CPU 0 instructions: 26000003 cycles: 14271406 heartbeat IPC: 1.82819 cumulative IPC: 1.82182 (Simulation time: 0 hr 35 min 11 sec) 
Heartbeat CPU 0 instructions: 27000000 cycles: 14818381 heartbeat IPC: 1.82823 cumulative IPC: 1.82206 (Simulation time: 0 hr 36 min 35 sec) 
Heartbeat CPU 0 instructions: 28000000 cycles: 15365365 heartbeat IPC: 1.82821 cumulative IPC: 1.82228 (Simulation time: 0 hr 38 min 4 sec) 
Heartbeat CPU 0 instructions: 29000003 cycles: 15912381 heartbeat IPC: 1.82811 cumulative IPC: 1.82248 (Simulation time: 0 hr 39 min 28 sec) 
Heartbeat CPU 0 instructions: 30000000 cycles: 16459393 heartbeat IPC: 1.82811 cumulative IPC: 1.82267 (Simulation time: 0 hr 40 min 55 sec) 
Heartbeat CPU 0 instructions: 31000003 cycles: 17006360 heartbeat IPC: 1.82827 cumulative IPC: 1.82285 (Simulation time: 0 hr 42 min 17 sec) 
Heartbeat CPU 0 instructions: 32000000 cycles: 17553384 heartbeat IPC: 1.82807 cumulative IPC: 1.82301 (Simulation time: 0 hr 43 min 43 sec) 
Heartbeat CPU 0 instructions: 33000000 cycles: 18100356 heartbeat IPC: 1.82825 cumulative IPC: 1.82317 (Simulation time: 0 hr 45 min 4 sec) 
Heartbeat CPU 0 instructions: 34000001 cycles: 18647368 heartbeat IPC: 1.82812 cumulative IPC: 1.82331 (Simulation time: 0 hr 46 min 30 sec) 
Heartbeat CPU 0 instructions: 35000001 cycles: 19194373 heartbeat IPC: 1.82814 cumulative IPC: 1.82345 (Simulation time: 0 hr 47 min 53 sec) 
Heartbeat CPU 0 instructions: 36000000 cycles: 19741323 heartbeat IPC: 1.82832 cumulative IPC: 1.82359 (Simulation time: 0 hr 49 min 21 sec) 
Heartbeat CPU 0 instructions: 37000001 cycles: 20288363 heartbeat IPC: 1.82802 cumulative IPC: 1.82371 (Simulation time: 0 hr 50 min 48 sec) 
Heartbeat CPU 0 instructions: 38000001 cycles: 20835354 heartbeat IPC: 1.82818 cumulative IPC: 1.82382 (Simulation time: 0 hr 52 min 13 sec) 
Heartbeat CPU 0 instructions: 39000000 cycles: 21382325 heartbeat IPC: 1.82825 cumulative IPC: 1.82394 (Simulation time: 0 hr 53 min 40 sec) 
Heartbeat CPU 0 instructions: 40000000 cycles: 21929320 heartbeat IPC: 1.82817 cumulative IPC: 1.82404 (Simulation time: 0 hr 55 min 12 sec) 
Heartbeat CPU 0 instructions: 41000001 cycles: 22476331 heartbeat IPC: 1.82812 cumulative IPC: 1.82414 (Simulation time: 0 hr 56 min 45 sec) 
Heartbeat CPU 0 instructions: 42000001 cycles: 23023324 heartbeat IPC: 1.82818 cumulative IPC: 1.82424 (Simulation time: 0 hr 58 min 10 sec) 
Heartbeat CPU 0 instructions: 43000000 cycles: 23570300 heartbeat IPC: 1.82823 cumulative IPC: 1.82433 (Simulation time: 0 hr 59 min 37 sec) 
Heartbeat CPU 0 instructions: 44000000 cycles: 24074427 heartbeat IPC: 1.98363 cumulative IPC: 1.82767 (Simulation time: 1 hr 1 min 7 sec) 
Heartbeat CPU 0 instructions: 45000002 cycles: 24567679 heartbeat IPC: 2.02737 cumulative IPC: 1.83167 (Simulation time: 1 hr 2 min 31 sec) 
Heartbeat CPU 0 instructions: 46000000 cycles: 25060917 heartbeat IPC: 2.02741 cumulative IPC: 1.83553 (Simulation time: 1 hr 3 min 54 sec) 
Heartbeat CPU 0 instructions: 47000000 cycles: 25554137 heartbeat IPC: 2.02749 cumulative IPC: 1.83923 (Simulation time: 1 hr 5 min 19 sec) 
Heartbeat CPU 0 instructions: 48000000 cycles: 26047374 heartbeat IPC: 2.02742 cumulative IPC: 1.8428 (Simulation time: 1 hr 6 min 48 sec) 
Heartbeat CPU 0 instructions: 49000002 cycles: 26540623 heartbeat IPC: 2.02738 cumulative IPC: 1.84623 (Simulation time: 1 hr 8 min 15 sec) 
Heartbeat CPU 0 instructions: 50000000 cycles: 27018579 heartbeat IPC: 2.09224 cumulative IPC: 1.85058 (Simulation time: 1 hr 9 min 39 sec) 

Warmup complete CPU 0 instructions: 50000004 cycles: 27018580 (Simulation time: 1 hr 9 min 39 sec) 

Heartbeat CPU 0 instructions: 51000002 cycles: 28149875 heartbeat IPC: 0.883944 cumulative IPC: 0.883941 (Simulation time: 1 hr 11 min 3 sec) 
Heartbeat CPU 0 instructions: 52000000 cycles: 30038745 heartbeat IPC: 0.529416 cumulative IPC: 0.662214 (Simulation time: 1 hr 12 min 33 sec) 
Heartbeat CPU 0 instructions: 53000002 cycles: 32290469 heartbeat IPC: 0.444105 cumulative IPC: 0.569056 (Simulation time: 1 hr 14 min 7 sec) 
Heartbeat CPU 0 instructions: 54000003 cycles: 34549929 heartbeat IPC: 0.442584 cumulative IPC: 0.531113 (Simulation time: 1 hr 15 min 41 sec) 
Heartbeat CPU 0 instructions: 55000003 cycles: 36793694 heartbeat IPC: 0.445679 cumulative IPC: 0.511503 (Simulation time: 1 hr 17 min 17 sec) 
Heartbeat CPU 0 instructions: 56000000 cycles: 39028000 heartbeat IPC: 0.447565 cumulative IPC: 0.499607 (Simulation time: 1 hr 18 min 52 sec) 
Heartbeat CPU 0 instructions: 57000000 cycles: 41262099 heartbeat IPC: 0.447608 cumulative IPC: 0.491451 (Simulation time: 1 hr 20 min 23 sec) 
Heartbeat CPU 0 instructions: 58000000 cycles: 43494205 heartbeat IPC: 0.448007 cumulative IPC: 0.485566 (Simulation time: 1 hr 21 min 55 sec) 
Heartbeat CPU 0 instructions: 59000001 cycles: 45728725 heartbeat IPC: 0.447524 cumulative IPC: 0.481022 (Simulation time: 1 hr 23 min 21 sec) 
Heartbeat CPU 0 instructions: 60000000 cycles: 47960446 heartbeat IPC: 0.448084 cumulative IPC: 0.477512 (Simulation time: 1 hr 24 min 52 sec) 
Heartbeat CPU 0 instructions: 61000000 cycles: 50190784 heartbeat IPC: 0.448363 cumulative IPC: 0.474707 (Simulation time: 1 hr 26 min 22 sec) 
Heartbeat CPU 0 instructions: 62000003 cycles: 52431876 heartbeat IPC: 0.446212 cumulative IPC: 0.472194 (Simulation time: 1 hr 27 min 51 sec) 
Heartbeat CPU 0 instructions: 63000003 cycles: 54668469 heartbeat IPC: 0.447109 cumulative IPC: 0.470165 (Simulation time: 1 hr 29 min 24 sec) 
Heartbeat CPU 0 instructions: 64000000 cycles: 56906751 heartbeat IPC: 0.44677 cumulative IPC: 0.468413 (Simulation time: 1 hr 30 min 55 sec) 
Heartbeat CPU 0 instructions: 65000001 cycles: 59139431 heartbeat IPC: 0.447893 cumulative IPC: 0.466986 (Simulation time: 1 hr 32 min 22 sec) 
Heartbeat CPU 0 instructions: 66000001 cycles: 61371382 heartbeat IPC: 0.448039 cumulative IPC: 0.465755 (Simulation time: 1 hr 33 min 51 sec) 
Heartbeat CPU 0 instructions: 67000002 cycles: 63607022 heartbeat IPC: 0.4473 cumulative IPC: 0.464628 (Simulation time: 1 hr 35 min 17 sec) 
Heartbeat CPU 0 instructions: 68000000 cycles: 65840758 heartbeat IPC: 0.44768 cumulative IPC: 0.463652 (Simulation time: 1 hr 36 min 50 sec) 
Heartbeat CPU 0 instructions: 69000001 cycles: 68071272 heartbeat IPC: 0.448328 cumulative IPC: 0.46282 (Simulation time: 1 hr 38 min 16 sec) 
Heartbeat CPU 0 instructions: 70000000 cycles: 70309911 heartbeat IPC: 0.4467 cumulative IPC: 0.461986 (Simulation time: 1 hr 39 min 45 sec) 
Heartbeat CPU 0 instructions: 71000000 cycles: 72544801 heartbeat IPC: 0.447449 cumulative IPC: 0.461273 (Simulation time: 1 hr 41 min 12 sec) 
Heartbeat CPU 0 instructions: 72000000 cycles: 74772816 heartbeat IPC: 0.44883 cumulative IPC: 0.460692 (Simulation time: 1 hr 42 min 39 sec) 
Heartbeat CPU 0 instructions: 73000001 cycles: 76996124 heartbeat IPC: 0.449781 cumulative IPC: 0.460207 (Simulation time: 1 hr 44 min 12 sec) 
Heartbeat CPU 0 instructions: 74000002 cycles: 78592869 heartbeat IPC: 0.626275 cumulative IPC: 0.465348 (Simulation time: 1 hr 45 min 43 sec) 
Heartbeat CPU 0 instructions: 75000003 cycles: 80193056 heartbeat IPC: 0.624928 cumulative IPC: 0.47015 (Simulation time: 1 hr 47 min 13 sec) 
Heartbeat CPU 0 instructions: 76000000 cycles: 81797108 heartbeat IPC: 0.623419 cumulative IPC: 0.474638 (Simulation time: 1 hr 48 min 47 sec) 
Heartbeat CPU 0 instructions: 77000000 cycles: 83396957 heartbeat IPC: 0.625059 cumulative IPC: 0.478907 (Simulation time: 1 hr 50 min 23 sec) 
Heartbeat CPU 0 instructions: 78000000 cycles: 84996599 heartbeat IPC: 0.62514 cumulative IPC: 0.482942 (Simulation time: 1 hr 51 min 56 sec) 
Heartbeat CPU 0 instructions: 79000000 cycles: 86599704 heartbeat IPC: 0.623789 cumulative IPC: 0.486731 (Simulation time: 1 hr 53 min 29 sec) 
Heartbeat CPU 0 instructions: 80000000 cycles: 88194810 heartbeat IPC: 0.626918 cumulative IPC: 0.490386 (Simulation time: 1 hr 54 min 58 sec) 
Heartbeat CPU 0 instructions: 81000003 cycles: 89797835 heartbeat IPC: 0.623822 cumulative IPC: 0.493794 (Simulation time: 1 hr 56 min 33 sec) 
Heartbeat CPU 0 instructions: 82000003 cycles: 91394267 heartbeat IPC: 0.626397 cumulative IPC: 0.497082 (Simulation time: 1 hr 58 min 4 sec) 
Heartbeat CPU 0 instructions: 83000002 cycles: 92984103 heartbeat IPC: 0.628995 cumulative IPC: 0.500261 (Simulation time: 1 hr 59 min 36 sec) 
Heartbeat CPU 0 instructions: 84000000 cycles: 94578754 heartbeat IPC: 0.627095 cumulative IPC: 0.503255 (Simulation time: 2 hr 1 min 8 sec) 
Heartbeat CPU 0 instructions: 85000000 cycles: 96173257 heartbeat IPC: 0.627155 cumulative IPC: 0.506112 (Simulation time: 2 hr 2 min 42 sec) 
Heartbeat CPU 0 instructions: 86000000 cycles: 97767875 heartbeat IPC: 0.627109 cumulative IPC: 0.508839 (Simulation time: 2 hr 4 min 13 sec) 
Heartbeat CPU 0 instructions: 87000000 cycles: 99361562 heartbeat IPC: 0.627476 cumulative IPC: 0.511452 (Simulation time: 2 hr 5 min 43 sec) 
Heartbeat CPU 0 instructions: 88000000 cycles: 100949638 heartbeat IPC: 0.629693 cumulative IPC: 0.513992 (Simulation time: 2 hr 7 min 15 sec) 
Heartbeat CPU 0 instructions: 89000002 cycles: 102547495 heartbeat IPC: 0.625839 cumulative IPC: 0.516358 (Simulation time: 2 hr 8 min 45 sec) 
Heartbeat CPU 0 instructions: 90000002 cycles: 104138180 heartbeat IPC: 0.62866 cumulative IPC: 0.518675 (Simulation time: 2 hr 10 min 13 sec) 
Heartbeat CPU 0 instructions: 91000003 cycles: 105729909 heartbeat IPC: 0.628248 cumulative IPC: 0.520891 (Simulation time: 2 hr 11 min 48 sec) 
Heartbeat CPU 0 instructions: 92000000 cycles: 107323395 heartbeat IPC: 0.627553 cumulative IPC: 0.523007 (Simulation time: 2 hr 13 min 19 sec) 
Heartbeat CPU 0 instructions: 93000000 cycles: 108914425 heartbeat IPC: 0.628524 cumulative IPC: 0.525057 (Simulation time: 2 hr 14 min 56 sec) 
Heartbeat CPU 0 instructions: 94000000 cycles: 110507798 heartbeat IPC: 0.627599 cumulative IPC: 0.527014 (Simulation time: 2 hr 16 min 26 sec) 
Heartbeat CPU 0 instructions: 95000000 cycles: 112105906 heartbeat IPC: 0.62574 cumulative IPC: 0.528868 (Simulation time: 2 hr 17 min 57 sec) 
Heartbeat CPU 0 instructions: 96000000 cycles: 113697344 heartbeat IPC: 0.628363 cumulative IPC: 0.530695 (Simulation time: 2 hr 19 min 27 sec) 
Heartbeat CPU 0 instructions: 97000002 cycles: 115277019 heartbeat IPC: 0.633043 cumulative IPC: 0.532527 (Simulation time: 2 hr 20 min 59 sec) 
Heartbeat CPU 0 instructions: 98000003 cycles: 116854345 heartbeat IPC: 0.633985 cumulative IPC: 0.534308 (Simulation time: 2 hr 22 min 33 sec) 
Heartbeat CPU 0 instructions: 99000000 cycles: 118436502 heartbeat IPC: 0.632047 cumulative IPC: 0.536 (Simulation time: 2 hr 24 min 2 sec) 
Heartbeat CPU 0 instructions: 100000000 cycles: 120022201 heartbeat IPC: 0.630637 cumulative IPC: 0.537613 (Simulation time: 2 hr 25 min 32 sec) 
Heartbeat CPU 0 instructions: 101000002 cycles: 121605341 heartbeat IPC: 0.631657 cumulative IPC: 0.539187 (Simulation time: 2 hr 27 min 7 sec) 
Heartbeat CPU 0 instructions: 102000000 cycles: 123184969 heartbeat IPC: 0.633059 cumulative IPC: 0.540729 (Simulation time: 2 hr 28 min 38 sec) 
Heartbeat CPU 0 instructions: 103000002 cycles: 124766538 heartbeat IPC: 0.632285 cumulative IPC: 0.542211 (Simulation time: 2 hr 30 min 11 sec) 
Heartbeat CPU 0 instructions: 104000000 cycles: 126342894 heartbeat IPC: 0.634373 cumulative IPC: 0.543674 (Simulation time: 2 hr 31 min 40 sec) 
Heartbeat CPU 0 instructions: 105000003 cycles: 127923771 heartbeat IPC: 0.632562 cumulative IPC: 0.545066 (Simulation time: 2 hr 33 min 15 sec) 
Heartbeat CPU 0 instructions: 106000002 cycles: 129510970 heartbeat IPC: 0.63004 cumulative IPC: 0.546382 (Simulation time: 2 hr 34 min 48 sec) 
Heartbeat CPU 0 instructions: 107000000 cycles: 131095430 heartbeat IPC: 0.631129 cumulative IPC: 0.547672 (Simulation time: 2 hr 36 min 22 sec) 
Heartbeat CPU 0 instructions: 108000000 cycles: 132681226 heartbeat IPC: 0.630598 cumulative IPC: 0.548917 (Simulation time: 2 hr 37 min 56 sec) 
Heartbeat CPU 0 instructions: 109000002 cycles: 134256861 heartbeat IPC: 0.634666 cumulative IPC: 0.550177 (Simulation time: 2 hr 39 min 29 sec) 
Heartbeat CPU 0 instructions: 110000000 cycles: 135837138 heartbeat IPC: 0.632799 cumulative IPC: 0.551377 (Simulation time: 2 hr 40 min 59 sec) 
Heartbeat CPU 0 instructions: 111000000 cycles: 137416881 heartbeat IPC: 0.633014 cumulative IPC: 0.552545 (Simulation time: 2 hr 42 min 29 sec) 
Heartbeat CPU 0 instructions: 112000000 cycles: 138999917 heartbeat IPC: 0.631698 cumulative IPC: 0.553664 (Simulation time: 2 hr 43 min 58 sec) 
Heartbeat CPU 0 instructions: 113000002 cycles: 140578600 heartbeat IPC: 0.633441 cumulative IPC: 0.554773 (Simulation time: 2 hr 45 min 26 sec) 
Heartbeat CPU 0 instructions: 114000003 cycles: 142162727 heartbeat IPC: 0.631263 cumulative IPC: 0.555825 (Simulation time: 2 hr 46 min 52 sec) 
Heartbeat CPU 0 instructions: 115000002 cycles: 143744711 heartbeat IPC: 0.632117 cumulative IPC: 0.556859 (Simulation time: 2 hr 48 min 18 sec) 
Heartbeat CPU 0 instructions: 116000000 cycles: 145328509 heartbeat IPC: 0.631392 cumulative IPC: 0.557857 (Simulation time: 2 hr 49 min 45 sec) 
Heartbeat CPU 0 instructions: 117000003 cycles: 146907980 heartbeat IPC: 0.633125 cumulative IPC: 0.558848 (Simulation time: 2 hr 51 min 8 sec) 
Heartbeat CPU 0 instructions: 118000001 cycles: 148477782 heartbeat IPC: 0.637022 cumulative IPC: 0.559859 (Simulation time: 2 hr 52 min 34 sec) 
Heartbeat CPU 0 instructions: 119000000 cycles: 150060817 heartbeat IPC: 0.631697 cumulative IPC: 0.560783 (Simulation time: 2 hr 53 min 59 sec) 
Heartbeat CPU 0 instructions: 120000000 cycles: 151843652 heartbeat IPC: 0.560904 cumulative IPC: 0.560785 (Simulation time: 2 hr 55 min 30 sec) 
Heartbeat CPU 0 instructions: 121000003 cycles: 154061482 heartbeat IPC: 0.450893 cumulative IPC: 0.558866 (Simulation time: 2 hr 57 min 9 sec) 
Heartbeat CPU 0 instructions: 122000002 cycles: 156438750 heartbeat IPC: 0.420651 cumulative IPC: 0.556327 (Simulation time: 2 hr 58 min 48 sec) 
Heartbeat CPU 0 instructions: 123000002 cycles: 158782730 heartbeat IPC: 0.426625 cumulative IPC: 0.55402 (Simulation time: 3 hr 0 min 30 sec) 
Heartbeat CPU 0 instructions: 124000000 cycles: 161168513 heartbeat IPC: 0.419149 cumulative IPC: 0.551622 (Simulation time: 3 hr 1 min 57 sec) 
Heartbeat CPU 0 instructions: 125000002 cycles: 163484976 heartbeat IPC: 0.431693 cumulative IPC: 0.549586 (Simulation time: 3 hr 3 min 21 sec) 
Heartbeat CPU 0 instructions: 126000001 cycles: 165830182 heartbeat IPC: 0.426401 cumulative IPC: 0.547505 (Simulation time: 3 hr 4 min 39 sec) 
Heartbeat CPU 0 instructions: 127000001 cycles: 170121238 heartbeat IPC: 0.233043 cumulative IPC: 0.538075 (Simulation time: 3 hr 6 min 21 sec) 
Heartbeat CPU 0 instructions: 128000000 cycles: 171988786 heartbeat IPC: 0.535461 cumulative IPC: 0.538042 (Simulation time: 3 hr 7 min 9 sec) 
Heartbeat CPU 0 instructions: 129000000 cycles: 173827871 heartbeat IPC: 0.543749 cumulative IPC: 0.538113 (Simulation time: 3 hr 7 min 56 sec) 
Heartbeat CPU 0 instructions: 130000001 cycles: 175666269 heartbeat IPC: 0.543952 cumulative IPC: 0.538185 (Simulation time: 3 hr 8 min 51 sec) 
Heartbeat CPU 0 instructions: 131000003 cycles: 177493184 heartbeat IPC: 0.547372 cumulative IPC: 0.538297 (Simulation time: 3 hr 9 min 40 sec) 
Heartbeat CPU 0 instructions: 132000000 cycles: 179318976 heartbeat IPC: 0.547706 cumulative IPC: 0.53841 (Simulation time: 3 hr 10 min 28 sec) 
Heartbeat CPU 0 instructions: 133000001 cycles: 181142162 heartbeat IPC: 0.548491 cumulative IPC: 0.538529 (Simulation time: 3 hr 11 min 19 sec) 
Heartbeat CPU 0 instructions: 134000003 cycles: 182958541 heartbeat IPC: 0.550547 cumulative IPC: 0.538669 (Simulation time: 3 hr 12 min 7 sec) 
Heartbeat CPU 0 instructions: 135000001 cycles: 184776056 heartbeat IPC: 0.550201 cumulative IPC: 0.538802 (Simulation time: 3 hr 12 min 49 sec) 
Heartbeat CPU 0 instructions: 136000000 cycles: 186594251 heartbeat IPC: 0.549995 cumulative IPC: 0.538929 (Simulation time: 3 hr 13 min 33 sec) 
Heartbeat CPU 0 instructions: 137000001 cycles: 188414421 heartbeat IPC: 0.5494 cumulative IPC: 0.539047 (Simulation time: 3 hr 14 min 21 sec) 
Heartbeat CPU 0 instructions: 138000003 cycles: 190232646 heartbeat IPC: 0.549988 cumulative IPC: 0.539169 (Simulation time: 3 hr 15 min 7 sec) 
Heartbeat CPU 0 instructions: 139000003 cycles: 192049837 heartbeat IPC: 0.5503 cumulative IPC: 0.539292 (Simulation time: 3 hr 15 min 51 sec) 
Heartbeat CPU 0 instructions: 140000000 cycles: 193863247 heartbeat IPC: 0.551446 cumulative IPC: 0.539424 (Simulation time: 3 hr 16 min 37 sec) 
Heartbeat CPU 0 instructions: 141000003 cycles: 195679137 heartbeat IPC: 0.550696 cumulative IPC: 0.539545 (Simulation time: 3 hr 17 min 23 sec) 
Heartbeat CPU 0 instructions: 142000001 cycles: 197497100 heartbeat IPC: 0.550065 cumulative IPC: 0.539657 (Simulation time: 3 hr 18 min 5 sec) 
Heartbeat CPU 0 instructions: 143000003 cycles: 199312542 heartbeat IPC: 0.550831 cumulative IPC: 0.539775 (Simulation time: 3 hr 18 min 44 sec) 
Heartbeat CPU 0 instructions: 144000000 cycles: 201128457 heartbeat IPC: 0.550685 cumulative IPC: 0.539889 (Simulation time: 3 hr 19 min 29 sec) 
Heartbeat CPU 0 instructions: 145000001 cycles: 202940564 heartbeat IPC: 0.551844 cumulative IPC: 0.540012 (Simulation time: 3 hr 20 min 16 sec) 
Heartbeat CPU 0 instructions: 146000001 cycles: 204754557 heartbeat IPC: 0.55127 cumulative IPC: 0.540127 (Simulation time: 3 hr 20 min 59 sec) 
Heartbeat CPU 0 instructions: 147000001 cycles: 206577748 heartbeat IPC: 0.548489 cumulative IPC: 0.540212 (Simulation time: 3 hr 21 min 43 sec) 
Heartbeat CPU 0 instructions: 148000000 cycles: 208388911 heartbeat IPC: 0.552131 cumulative IPC: 0.540331 (Simulation time: 3 hr 22 min 22 sec) 
Heartbeat CPU 0 instructions: 149000001 cycles: 210207578 heartbeat IPC: 0.549854 cumulative IPC: 0.540425 (Simulation time: 3 hr 23 min 5 sec) 
Heartbeat CPU 0 instructions: 150000003 cycles: 212022728 heartbeat IPC: 0.55092 cumulative IPC: 0.540528 (Simulation time: 3 hr 23 min 46 sec) 
Finished CPU 0 instructions: 100000003 cycles: 185004149 cummulative IPC: 0.540528 (Simulation time: 3 hr 23 min 46 sec) 

ChampSim completed all CPUs

Region of Interest Statistics

CPU 0 cummulative IPC: 0.540528 instructions: 100000003 cycles: 185004149
LLC TOTAL     ACCESS:    3782729  HIT:     789126  MISS:    2993603
LLC LOAD      ACCESS:    1108918  HIT:          7  MISS:    1108911
LLC RFO       ACCESS:     348144  HIT:          0  MISS:     348144
LLC PREFETCH  ACCESS:    1536654  HIT:        114  MISS:    1536540
LLC WRITEBACK ACCESS:     789013  HIT:     789005  MISS:          8
