
*** ChampSim Multicore Out-of-Order Simulator ***

Warmup Instructions: 50000000
Simulation Instructions: 100000000
Configuration: 2
Number of CPUs: 1
LLC sets: 2048
LLC ways: 16
Off-chip DRAM Channels: 1 Width: 64-bit Data Rate: 1600 MT/s

CPU 0 runs /datasets/cs240c-wi22-a00-public/data/Assignment2-gz/sphinx3_2520B.trace.gz
CPU 0 L1D next line prefetcher
CPU 0 L2C IP-based stride prefetcher
Initialize LRU replacement state
Heartbeat CPU 0 instructions: 1000003 cycles: 338965 heartbeat IPC: 2.95017 cumulative IPC: 2.95017 (Simulation time: 0 hr 1 min 0 sec) 
Heartbeat CPU 0 instructions: 2000000 cycles: 737242 heartbeat IPC: 2.51081 cumulative IPC: 2.71281 (Simulation time: 0 hr 2 min 1 sec) 
Heartbeat CPU 0 instructions: 3000003 cycles: 1185242 heartbeat IPC: 2.23215 cumulative IPC: 2.53113 (Simulation time: 0 hr 2 min 58 sec) 
Heartbeat CPU 0 instructions: 4000000 cycles: 1524276 heartbeat IPC: 2.94955 cumulative IPC: 2.6242 (Simulation time: 0 hr 3 min 52 sec) 
Heartbeat CPU 0 instructions: 5000001 cycles: 1902587 heartbeat IPC: 2.64333 cumulative IPC: 2.628 (Simulation time: 0 hr 5 min 0 sec) 
Heartbeat CPU 0 instructions: 6000001 cycles: 2368067 heartbeat IPC: 2.14832 cumulative IPC: 2.53371 (Simulation time: 0 hr 5 min 59 sec) 
Heartbeat CPU 0 instructions: 7000001 cycles: 2707009 heartbeat IPC: 2.95036 cumulative IPC: 2.58588 (Simulation time: 0 hr 6 min 52 sec) 
Heartbeat CPU 0 instructions: 8000000 cycles: 3056040 heartbeat IPC: 2.86507 cumulative IPC: 2.61777 (Simulation time: 0 hr 7 min 50 sec) 
Heartbeat CPU 0 instructions: 9000000 cycles: 3509536 heartbeat IPC: 2.20509 cumulative IPC: 2.56444 (Simulation time: 0 hr 8 min 55 sec) 
Heartbeat CPU 0 instructions: 10000000 cycles: 3859693 heartbeat IPC: 2.85586 cumulative IPC: 2.59088 (Simulation time: 0 hr 9 min 47 sec) 
Heartbeat CPU 0 instructions: 11000003 cycles: 4204454 heartbeat IPC: 2.90057 cumulative IPC: 2.61627 (Simulation time: 0 hr 10 min 41 sec) 
Heartbeat CPU 0 instructions: 12000000 cycles: 4649166 heartbeat IPC: 2.24864 cumulative IPC: 2.58111 (Simulation time: 0 hr 11 min 37 sec) 
Heartbeat CPU 0 instructions: 13000000 cycles: 5008758 heartbeat IPC: 2.78093 cumulative IPC: 2.59545 (Simulation time: 0 hr 12 min 34 sec) 
Heartbeat CPU 0 instructions: 14000002 cycles: 5351457 heartbeat IPC: 2.91802 cumulative IPC: 2.61611 (Simulation time: 0 hr 13 min 40 sec) 
Heartbeat CPU 0 instructions: 15000003 cycles: 5790915 heartbeat IPC: 2.27553 cumulative IPC: 2.59026 (Simulation time: 0 hr 14 min 51 sec) 
Heartbeat CPU 0 instructions: 16000000 cycles: 6157774 heartbeat IPC: 2.72583 cumulative IPC: 2.59834 (Simulation time: 0 hr 15 min 53 sec) 
Heartbeat CPU 0 instructions: 17000000 cycles: 6499182 heartbeat IPC: 2.92905 cumulative IPC: 2.61571 (Simulation time: 0 hr 17 min 1 sec) 
Heartbeat CPU 0 instructions: 18000002 cycles: 6933564 heartbeat IPC: 2.30213 cumulative IPC: 2.59607 (Simulation time: 0 hr 18 min 11 sec) 
Heartbeat CPU 0 instructions: 19000000 cycles: 7304896 heartbeat IPC: 2.693 cumulative IPC: 2.601 (Simulation time: 0 hr 19 min 15 sec) 
Heartbeat CPU 0 instructions: 20000000 cycles: 7646088 heartbeat IPC: 2.9309 cumulative IPC: 2.61572 (Simulation time: 0 hr 20 min 22 sec) 
Heartbeat CPU 0 instructions: 21000001 cycles: 8090410 heartbeat IPC: 2.25062 cumulative IPC: 2.59567 (Simulation time: 0 hr 21 min 36 sec) 
Heartbeat CPU 0 instructions: 22000002 cycles: 8504561 heartbeat IPC: 2.41458 cumulative IPC: 2.58685 (Simulation time: 0 hr 22 min 44 sec) 
Heartbeat CPU 0 instructions: 23000001 cycles: 8943561 heartbeat IPC: 2.2779 cumulative IPC: 2.57168 (Simulation time: 0 hr 23 min 51 sec) 
Heartbeat CPU 0 instructions: 24000000 cycles: 9282593 heartbeat IPC: 2.94957 cumulative IPC: 2.58548 (Simulation time: 0 hr 25 min 0 sec) 
Heartbeat CPU 0 instructions: 25000003 cycles: 9669361 heartbeat IPC: 2.58554 cumulative IPC: 2.58549 (Simulation time: 0 hr 26 min 9 sec) 
Heartbeat CPU 0 instructions: 26000001 cycles: 10086214 heartbeat IPC: 2.39892 cumulative IPC: 2.57778 (Simulation time: 0 hr 27 min 14 sec) 
Heartbeat CPU 0 instructions: 27000003 cycles: 10425200 heartbeat IPC: 2.94998 cumulative IPC: 2.58988 (Simulation time: 0 hr 28 min 17 sec) 
Heartbeat CPU 0 instructions: 28000000 cycles: 10828566 heartbeat IPC: 2.47913 cumulative IPC: 2.58575 (Simulation time: 0 hr 29 min 24 sec) 
Heartbeat CPU 0 instructions: 29000002 cycles: 11229104 heartbeat IPC: 2.49665 cumulative IPC: 2.58257 (Simulation time: 0 hr 30 min 28 sec) 
Heartbeat CPU 0 instructions: 30000002 cycles: 11568046 heartbeat IPC: 2.95036 cumulative IPC: 2.59335 (Simulation time: 0 hr 31 min 33 sec) 
Heartbeat CPU 0 instructions: 31000000 cycles: 11989330 heartbeat IPC: 2.37369 cumulative IPC: 2.58563 (Simulation time: 0 hr 32 min 41 sec) 
Heartbeat CPU 0 instructions: 32000000 cycles: 12370670 heartbeat IPC: 2.62233 cumulative IPC: 2.58676 (Simulation time: 0 hr 33 min 45 sec) 
Heartbeat CPU 0 instructions: 33000002 cycles: 12711434 heartbeat IPC: 2.93459 cumulative IPC: 2.59609 (Simulation time: 0 hr 34 min 52 sec) 
Heartbeat CPU 0 instructions: 34000000 cycles: 13151241 heartbeat IPC: 2.27372 cumulative IPC: 2.58531 (Simulation time: 0 hr 36 min 0 sec) 
Heartbeat CPU 0 instructions: 35000001 cycles: 13512515 heartbeat IPC: 2.76798 cumulative IPC: 2.59019 (Simulation time: 0 hr 37 min 5 sec) 
Heartbeat CPU 0 instructions: 36000000 cycles: 13854865 heartbeat IPC: 2.92098 cumulative IPC: 2.59837 (Simulation time: 0 hr 38 min 12 sec) 
Heartbeat CPU 0 instructions: 37000000 cycles: 14314485 heartbeat IPC: 2.17571 cumulative IPC: 2.58479 (Simulation time: 0 hr 39 min 19 sec) 
Heartbeat CPU 0 instructions: 38000000 cycles: 14654801 heartbeat IPC: 2.93845 cumulative IPC: 2.59301 (Simulation time: 0 hr 40 min 27 sec) 
Heartbeat CPU 0 instructions: 39000003 cycles: 15001136 heartbeat IPC: 2.88739 cumulative IPC: 2.5998 (Simulation time: 0 hr 41 min 33 sec) 
Heartbeat CPU 0 instructions: 40000000 cycles: 15460037 heartbeat IPC: 2.17911 cumulative IPC: 2.58732 (Simulation time: 0 hr 42 min 35 sec) 
Heartbeat CPU 0 instructions: 41000001 cycles: 15799080 heartbeat IPC: 2.94948 cumulative IPC: 2.59509 (Simulation time: 0 hr 43 min 45 sec) 
Heartbeat CPU 0 instructions: 42000003 cycles: 16147065 heartbeat IPC: 2.87369 cumulative IPC: 2.60109 (Simulation time: 0 hr 44 min 54 sec) 
Heartbeat CPU 0 instructions: 43000001 cycles: 16603450 heartbeat IPC: 2.19113 cumulative IPC: 2.58982 (Simulation time: 0 hr 46 min 2 sec) 
Heartbeat CPU 0 instructions: 44000000 cycles: 16942320 heartbeat IPC: 2.95098 cumulative IPC: 2.59705 (Simulation time: 0 hr 47 min 10 sec) 
Heartbeat CPU 0 instructions: 45000001 cycles: 17289425 heartbeat IPC: 2.88098 cumulative IPC: 2.60275 (Simulation time: 0 hr 48 min 16 sec) 
Heartbeat CPU 0 instructions: 46000000 cycles: 17747214 heartbeat IPC: 2.18441 cumulative IPC: 2.59196 (Simulation time: 0 hr 49 min 22 sec) 
Heartbeat CPU 0 instructions: 47000003 cycles: 18086201 heartbeat IPC: 2.94997 cumulative IPC: 2.59867 (Simulation time: 0 hr 50 min 28 sec) 
Heartbeat CPU 0 instructions: 48000000 cycles: 18434753 heartbeat IPC: 2.869 cumulative IPC: 2.60378 (Simulation time: 0 hr 51 min 37 sec) 
Heartbeat CPU 0 instructions: 49000002 cycles: 18889626 heartbeat IPC: 2.19842 cumulative IPC: 2.59402 (Simulation time: 0 hr 52 min 41 sec) 
Heartbeat CPU 0 instructions: 50000001 cycles: 19228606 heartbeat IPC: 2.95002 cumulative IPC: 2.60029 (Simulation time: 0 hr 53 min 45 sec) 

Warmup complete CPU 0 instructions: 50000001 cycles: 19228606 (Simulation time: 0 hr 53 min 45 sec) 

Heartbeat CPU 0 instructions: 51000001 cycles: 20128096 heartbeat IPC: 1.11174 cumulative IPC: 1.11174 (Simulation time: 0 hr 55 min 2 sec) 
Heartbeat CPU 0 instructions: 52000000 cycles: 21009497 heartbeat IPC: 1.13456 cumulative IPC: 1.12303 (Simulation time: 0 hr 56 min 18 sec) 
Heartbeat CPU 0 instructions: 53000001 cycles: 21813157 heartbeat IPC: 1.24431 cumulative IPC: 1.16074 (Simulation time: 0 hr 57 min 31 sec) 
Heartbeat CPU 0 instructions: 54000001 cycles: 22677050 heartbeat IPC: 1.15755 cumulative IPC: 1.15994 (Simulation time: 0 hr 58 min 43 sec) 
Heartbeat CPU 0 instructions: 55000000 cycles: 23497221 heartbeat IPC: 1.21926 cumulative IPC: 1.17134 (Simulation time: 0 hr 59 min 58 sec) 
Heartbeat CPU 0 instructions: 56000000 cycles: 24295042 heartbeat IPC: 1.25341 cumulative IPC: 1.18426 (Simulation time: 1 hr 1 min 16 sec) 
Heartbeat CPU 0 instructions: 57000000 cycles: 25270124 heartbeat IPC: 1.02555 cumulative IPC: 1.15865 (Simulation time: 1 hr 2 min 30 sec) 
Heartbeat CPU 0 instructions: 58000002 cycles: 26399775 heartbeat IPC: 0.885231 cumulative IPC: 1.11558 (Simulation time: 1 hr 3 min 53 sec) 
Heartbeat CPU 0 instructions: 59000001 cycles: 27291475 heartbeat IPC: 1.12145 cumulative IPC: 1.11623 (Simulation time: 1 hr 5 min 16 sec) 
Heartbeat CPU 0 instructions: 60000000 cycles: 28111184 heartbeat IPC: 1.21994 cumulative IPC: 1.1258 (Simulation time: 1 hr 6 min 39 sec) 
Heartbeat CPU 0 instructions: 61000001 cycles: 28959909 heartbeat IPC: 1.17824 cumulative IPC: 1.13037 (Simulation time: 1 hr 7 min 59 sec) 
Heartbeat CPU 0 instructions: 62000000 cycles: 29839571 heartbeat IPC: 1.1368 cumulative IPC: 1.13091 (Simulation time: 1 hr 9 min 12 sec) 
Heartbeat CPU 0 instructions: 63000002 cycles: 30629467 heartbeat IPC: 1.26599 cumulative IPC: 1.14026 (Simulation time: 1 hr 10 min 28 sec) 
Heartbeat CPU 0 instructions: 64000000 cycles: 31485400 heartbeat IPC: 1.16831 cumulative IPC: 1.14222 (Simulation time: 1 hr 11 min 42 sec) 
Heartbeat CPU 0 instructions: 65000001 cycles: 32323903 heartbeat IPC: 1.1926 cumulative IPC: 1.14545 (Simulation time: 1 hr 12 min 56 sec) 
Heartbeat CPU 0 instructions: 66000003 cycles: 33122440 heartbeat IPC: 1.25229 cumulative IPC: 1.15159 (Simulation time: 1 hr 14 min 9 sec) 
Heartbeat CPU 0 instructions: 67000000 cycles: 34024934 heartbeat IPC: 1.10804 cumulative IPC: 1.14893 (Simulation time: 1 hr 15 min 22 sec) 
Heartbeat CPU 0 instructions: 68000000 cycles: 34866741 heartbeat IPC: 1.18792 cumulative IPC: 1.15103 (Simulation time: 1 hr 16 min 37 sec) 
Heartbeat CPU 0 instructions: 69000003 cycles: 35676067 heartbeat IPC: 1.2356 cumulative IPC: 1.15519 (Simulation time: 1 hr 17 min 50 sec) 
Heartbeat CPU 0 instructions: 70000000 cycles: 36591246 heartbeat IPC: 1.09268 cumulative IPC: 1.1519 (Simulation time: 1 hr 19 min 5 sec) 
Heartbeat CPU 0 instructions: 71000002 cycles: 37436203 heartbeat IPC: 1.18349 cumulative IPC: 1.15336 (Simulation time: 1 hr 20 min 19 sec) 
Heartbeat CPU 0 instructions: 72000000 cycles: 38243544 heartbeat IPC: 1.23863 cumulative IPC: 1.15699 (Simulation time: 1 hr 21 min 29 sec) 
Heartbeat CPU 0 instructions: 73000003 cycles: 39152047 heartbeat IPC: 1.10072 cumulative IPC: 1.15442 (Simulation time: 1 hr 22 min 42 sec) 
Heartbeat CPU 0 instructions: 74000003 cycles: 39978533 heartbeat IPC: 1.20994 cumulative IPC: 1.15663 (Simulation time: 1 hr 23 min 52 sec) 
Heartbeat CPU 0 instructions: 75000002 cycles: 40792592 heartbeat IPC: 1.22841 cumulative IPC: 1.15934 (Simulation time: 1 hr 25 min 6 sec) 
Heartbeat CPU 0 instructions: 76000000 cycles: 41699241 heartbeat IPC: 1.10296 cumulative IPC: 1.15707 (Simulation time: 1 hr 26 min 18 sec) 
Heartbeat CPU 0 instructions: 77000003 cycles: 42545493 heartbeat IPC: 1.18168 cumulative IPC: 1.15796 (Simulation time: 1 hr 27 min 34 sec) 
Heartbeat CPU 0 instructions: 78000000 cycles: 43350704 heartbeat IPC: 1.24191 cumulative IPC: 1.16076 (Simulation time: 1 hr 28 min 53 sec) 
Heartbeat CPU 0 instructions: 79000000 cycles: 44260693 heartbeat IPC: 1.09891 cumulative IPC: 1.15851 (Simulation time: 1 hr 30 min 10 sec) 
Heartbeat CPU 0 instructions: 80000000 cycles: 45099488 heartbeat IPC: 1.19219 cumulative IPC: 1.1596 (Simulation time: 1 hr 31 min 24 sec) 
Heartbeat CPU 0 instructions: 81000001 cycles: 45905287 heartbeat IPC: 1.24101 cumulative IPC: 1.16206 (Simulation time: 1 hr 32 min 35 sec) 
Heartbeat CPU 0 instructions: 82000002 cycles: 46822202 heartbeat IPC: 1.09061 cumulative IPC: 1.15969 (Simulation time: 1 hr 33 min 47 sec) 
Heartbeat CPU 0 instructions: 83000003 cycles: 47665803 heartbeat IPC: 1.1854 cumulative IPC: 1.16045 (Simulation time: 1 hr 35 min 0 sec) 
Heartbeat CPU 0 instructions: 84000000 cycles: 48478376 heartbeat IPC: 1.23065 cumulative IPC: 1.1624 (Simulation time: 1 hr 36 min 14 sec) 
Heartbeat CPU 0 instructions: 85000001 cycles: 49399003 heartbeat IPC: 1.08622 cumulative IPC: 1.16008 (Simulation time: 1 hr 37 min 31 sec) 
Heartbeat CPU 0 instructions: 86000000 cycles: 50191881 heartbeat IPC: 1.26123 cumulative IPC: 1.16267 (Simulation time: 1 hr 38 min 47 sec) 
Heartbeat CPU 0 instructions: 87000000 cycles: 50993938 heartbeat IPC: 1.24679 cumulative IPC: 1.16479 (Simulation time: 1 hr 40 min 0 sec) 
Heartbeat CPU 0 instructions: 88000000 cycles: 51907887 heartbeat IPC: 1.09415 cumulative IPC: 1.16282 (Simulation time: 1 hr 41 min 14 sec) 
Heartbeat CPU 0 instructions: 89000000 cycles: 52697603 heartbeat IPC: 1.26628 cumulative IPC: 1.16526 (Simulation time: 1 hr 42 min 27 sec) 
Heartbeat CPU 0 instructions: 90000000 cycles: 53501645 heartbeat IPC: 1.24372 cumulative IPC: 1.1671 (Simulation time: 1 hr 43 min 38 sec) 
Heartbeat CPU 0 instructions: 91000001 cycles: 54404573 heartbeat IPC: 1.10751 cumulative IPC: 1.16557 (Simulation time: 1 hr 44 min 46 sec) 
Heartbeat CPU 0 instructions: 92000000 cycles: 55200537 heartbeat IPC: 1.25634 cumulative IPC: 1.16758 (Simulation time: 1 hr 45 min 58 sec) 
Heartbeat CPU 0 instructions: 93000002 cycles: 55992563 heartbeat IPC: 1.26259 cumulative IPC: 1.16962 (Simulation time: 1 hr 47 min 8 sec) 
Heartbeat CPU 0 instructions: 94000000 cycles: 56911952 heartbeat IPC: 1.08768 cumulative IPC: 1.16762 (Simulation time: 1 hr 48 min 24 sec) 
Heartbeat CPU 0 instructions: 95000000 cycles: 57708093 heartbeat IPC: 1.25606 cumulative IPC: 1.16945 (Simulation time: 1 hr 49 min 31 sec) 
Heartbeat CPU 0 instructions: 96000000 cycles: 58533808 heartbeat IPC: 1.21107 cumulative IPC: 1.17033 (Simulation time: 1 hr 50 min 44 sec) 
Heartbeat CPU 0 instructions: 97000002 cycles: 59778273 heartbeat IPC: 0.80356 cumulative IPC: 1.15907 (Simulation time: 1 hr 52 min 5 sec) 
Heartbeat CPU 0 instructions: 98000003 cycles: 60806675 heartbeat IPC: 0.972383 cumulative IPC: 1.15445 (Simulation time: 1 hr 53 min 21 sec) 
Heartbeat CPU 0 instructions: 99000000 cycles: 61644014 heartbeat IPC: 1.19426 cumulative IPC: 1.15524 (Simulation time: 1 hr 54 min 33 sec) 
Heartbeat CPU 0 instructions: 100000000 cycles: 62485884 heartbeat IPC: 1.18783 cumulative IPC: 1.15587 (Simulation time: 1 hr 55 min 46 sec) 
Heartbeat CPU 0 instructions: 101000001 cycles: 64040512 heartbeat IPC: 0.643241 cumulative IPC: 1.13809 (Simulation time: 1 hr 57 min 12 sec) 
Heartbeat CPU 0 instructions: 102000001 cycles: 64977189 heartbeat IPC: 1.0676 cumulative IPC: 1.13665 (Simulation time: 1 hr 58 min 29 sec) 
Heartbeat CPU 0 instructions: 103000001 cycles: 65867889 heartbeat IPC: 1.12271 cumulative IPC: 1.13638 (Simulation time: 1 hr 59 min 45 sec) 
Heartbeat CPU 0 instructions: 104000000 cycles: 67383838 heartbeat IPC: 0.659652 cumulative IPC: 1.12137 (Simulation time: 2 hr 1 min 3 sec) 
Heartbeat CPU 0 instructions: 105000002 cycles: 68356271 heartbeat IPC: 1.02835 cumulative IPC: 1.11953 (Simulation time: 2 hr 2 min 16 sec) 
Heartbeat CPU 0 instructions: 106000000 cycles: 69239507 heartbeat IPC: 1.1322 cumulative IPC: 1.11976 (Simulation time: 2 hr 3 min 31 sec) 
Heartbeat CPU 0 instructions: 107000001 cycles: 70546015 heartbeat IPC: 0.7654 cumulative IPC: 1.11073 (Simulation time: 2 hr 4 min 53 sec) 
Heartbeat CPU 0 instructions: 108000000 cycles: 71746626 heartbeat IPC: 0.832908 cumulative IPC: 1.10438 (Simulation time: 2 hr 6 min 11 sec) 
Heartbeat CPU 0 instructions: 109000003 cycles: 72631941 heartbeat IPC: 1.12954 cumulative IPC: 1.1048 (Simulation time: 2 hr 7 min 27 sec) 
Heartbeat CPU 0 instructions: 110000000 cycles: 73624839 heartbeat IPC: 1.00715 cumulative IPC: 1.10302 (Simulation time: 2 hr 8 min 44 sec) 
Heartbeat CPU 0 instructions: 111000001 cycles: 75123819 heartbeat IPC: 0.667121 cumulative IPC: 1.09133 (Simulation time: 2 hr 10 min 5 sec) 
Heartbeat CPU 0 instructions: 112000000 cycles: 76054215 heartbeat IPC: 1.07481 cumulative IPC: 1.09106 (Simulation time: 2 hr 11 min 20 sec) 
Heartbeat CPU 0 instructions: 113000000 cycles: 76950595 heartbeat IPC: 1.1156 cumulative IPC: 1.09144 (Simulation time: 2 hr 12 min 32 sec) 
Heartbeat CPU 0 instructions: 114000000 cycles: 78531843 heartbeat IPC: 0.632412 cumulative IPC: 1.0792 (Simulation time: 2 hr 13 min 55 sec) 
Heartbeat CPU 0 instructions: 115000000 cycles: 79491767 heartbeat IPC: 1.04175 cumulative IPC: 1.0786 (Simulation time: 2 hr 15 min 11 sec) 
Heartbeat CPU 0 instructions: 116000000 cycles: 80378146 heartbeat IPC: 1.12819 cumulative IPC: 1.07932 (Simulation time: 2 hr 16 min 22 sec) 
Heartbeat CPU 0 instructions: 117000001 cycles: 81713689 heartbeat IPC: 0.74876 cumulative IPC: 1.07226 (Simulation time: 2 hr 17 min 44 sec) 
Heartbeat CPU 0 instructions: 118000001 cycles: 82935340 heartbeat IPC: 0.818564 cumulative IPC: 1.06739 (Simulation time: 2 hr 19 min 4 sec) 
Heartbeat CPU 0 instructions: 119000003 cycles: 83816868 heartbeat IPC: 1.1344 cumulative IPC: 1.06831 (Simulation time: 2 hr 20 min 19 sec) 
Heartbeat CPU 0 instructions: 120000000 cycles: 84815051 heartbeat IPC: 1.00182 cumulative IPC: 1.06729 (Simulation time: 2 hr 21 min 35 sec) 
Heartbeat CPU 0 instructions: 121000002 cycles: 86332723 heartbeat IPC: 0.658905 cumulative IPC: 1.05806 (Simulation time: 2 hr 23 min 2 sec) 
Heartbeat CPU 0 instructions: 122000000 cycles: 87271076 heartbeat IPC: 1.06569 cumulative IPC: 1.05816 (Simulation time: 2 hr 24 min 20 sec) 
Heartbeat CPU 0 instructions: 123000003 cycles: 88161828 heartbeat IPC: 1.12265 cumulative IPC: 1.059 (Simulation time: 2 hr 25 min 38 sec) 
Heartbeat CPU 0 instructions: 124000000 cycles: 89717347 heartbeat IPC: 0.64287 cumulative IPC: 1.04981 (Simulation time: 2 hr 27 min 1 sec) 
Heartbeat CPU 0 instructions: 125000000 cycles: 90759274 heartbeat IPC: 0.95976 cumulative IPC: 1.0485 (Simulation time: 2 hr 28 min 17 sec) 
Heartbeat CPU 0 instructions: 126000001 cycles: 91642921 heartbeat IPC: 1.13167 cumulative IPC: 1.04952 (Simulation time: 2 hr 29 min 30 sec) 
Heartbeat CPU 0 instructions: 127000000 cycles: 92944004 heartbeat IPC: 0.76859 cumulative IPC: 1.04456 (Simulation time: 2 hr 30 min 49 sec) 
Heartbeat CPU 0 instructions: 128000000 cycles: 94300413 heartbeat IPC: 0.737241 cumulative IPC: 1.03901 (Simulation time: 2 hr 32 min 8 sec) 
Heartbeat CPU 0 instructions: 129000000 cycles: 95172626 heartbeat IPC: 1.14651 cumulative IPC: 1.04024 (Simulation time: 2 hr 33 min 21 sec) 
Heartbeat CPU 0 instructions: 130000000 cycles: 96066403 heartbeat IPC: 1.11885 cumulative IPC: 1.04115 (Simulation time: 2 hr 34 min 40 sec) 
Heartbeat CPU 0 instructions: 131000002 cycles: 97719375 heartbeat IPC: 0.604972 cumulative IPC: 1.03197 (Simulation time: 2 hr 36 min 0 sec) 
Heartbeat CPU 0 instructions: 132000000 cycles: 98661375 heartbeat IPC: 1.06157 cumulative IPC: 1.03232 (Simulation time: 2 hr 37 min 15 sec) 
Heartbeat CPU 0 instructions: 133000001 cycles: 99554079 heartbeat IPC: 1.12019 cumulative IPC: 1.0333 (Simulation time: 2 hr 38 min 26 sec) 
Heartbeat CPU 0 instructions: 134000001 cycles: 101063645 heartbeat IPC: 0.662442 cumulative IPC: 1.02646 (Simulation time: 2 hr 39 min 47 sec) 
Heartbeat CPU 0 instructions: 135000003 cycles: 102158893 heartbeat IPC: 0.913037 cumulative IPC: 1.02496 (Simulation time: 2 hr 41 min 2 sec) 
Heartbeat CPU 0 instructions: 136000000 cycles: 103045972 heartbeat IPC: 1.12729 cumulative IPC: 1.02604 (Simulation time: 2 hr 42 min 18 sec) 
Heartbeat CPU 0 instructions: 137000002 cycles: 104196187 heartbeat IPC: 0.869404 cumulative IPC: 1.02392 (Simulation time: 2 hr 43 min 39 sec) 
Heartbeat CPU 0 instructions: 138000000 cycles: 105811407 heartbeat IPC: 0.619109 cumulative IPC: 1.01637 (Simulation time: 2 hr 45 min 2 sec) 
Heartbeat CPU 0 instructions: 139000000 cycles: 106938841 heartbeat IPC: 0.88697 cumulative IPC: 1.0147 (Simulation time: 2 hr 46 min 19 sec) 
Heartbeat CPU 0 instructions: 140000000 cycles: 107867015 heartbeat IPC: 1.07738 cumulative IPC: 1.01536 (Simulation time: 2 hr 47 min 33 sec) 
Heartbeat CPU 0 instructions: 141000003 cycles: 108769281 heartbeat IPC: 1.10832 cumulative IPC: 1.0163 (Simulation time: 2 hr 48 min 46 sec) 
Heartbeat CPU 0 instructions: 142000000 cycles: 110225670 heartbeat IPC: 0.686628 cumulative IPC: 1.01102 (Simulation time: 2 hr 50 min 2 sec) 
Heartbeat CPU 0 instructions: 143000003 cycles: 111412713 heartbeat IPC: 0.842432 cumulative IPC: 1.00885 (Simulation time: 2 hr 51 min 12 sec) 
Heartbeat CPU 0 instructions: 144000000 cycles: 112296124 heartbeat IPC: 1.13197 cumulative IPC: 1.01002 (Simulation time: 2 hr 52 min 23 sec) 
Heartbeat CPU 0 instructions: 145000000 cycles: 113360295 heartbeat IPC: 0.939699 cumulative IPC: 1.00922 (Simulation time: 2 hr 53 min 34 sec) 
Heartbeat CPU 0 instructions: 146000000 cycles: 114863973 heartbeat IPC: 0.665036 cumulative IPC: 1.00381 (Simulation time: 2 hr 54 min 46 sec) 
Heartbeat CPU 0 instructions: 147000003 cycles: 115788983 heartbeat IPC: 1.08107 cumulative IPC: 1.00455 (Simulation time: 2 hr 55 min 57 sec) 
Heartbeat CPU 0 instructions: 148000000 cycles: 116684798 heartbeat IPC: 1.1163 cumulative IPC: 1.00558 (Simulation time: 2 hr 57 min 4 sec) 
Heartbeat CPU 0 instructions: 149000003 cycles: 118342550 heartbeat IPC: 0.603228 cumulative IPC: 0.99885 (Simulation time: 2 hr 58 min 21 sec) 
Heartbeat CPU 0 instructions: 150000001 cycles: 119325747 heartbeat IPC: 1.01709 cumulative IPC: 0.99903 (Simulation time: 2 hr 59 min 28 sec) 
Finished CPU 0 instructions: 100000000 cycles: 100097141 cummulative IPC: 0.99903 (Simulation time: 2 hr 59 min 28 sec) 

ChampSim completed all CPUs

Region of Interest Statistics

CPU 0 cummulative IPC: 0.99903 instructions: 100000000 cycles: 100097141
LLC TOTAL     ACCESS:    1520139  HIT:     443690  MISS:    1076449
LLC LOAD      ACCESS:     160637  HIT:      38530  MISS:     122107
LLC RFO       ACCESS:     118907  HIT:      51294  MISS:      67613
LLC PREFETCH  ACCESS:    1108288  HIT:     221603  MISS:     886685
LLC WRITEBACK ACCESS:     132307  HIT:     132263  MISS:         44
