
*** ChampSim Multicore Out-of-Order Simulator ***

Warmup Instructions: 50000000
Simulation Instructions: 100000000
Configuration: 2
Number of CPUs: 1
LLC sets: 2048
LLC ways: 16
Off-chip DRAM Channels: 1 Width: 64-bit Data Rate: 1600 MT/s

CPU 0 runs /datasets/cs240c-wi22-a00-public/data/Assignment2-gz/libquantum_1210B.trace.gz
CPU 0 L1D next line prefetcher
CPU 0 L2C IP-based stride prefetcher
Initialize LRU replacement state
Heartbeat CPU 0 instructions: 1000003 cycles: 314916 heartbeat IPC: 3.17546 cumulative IPC: 3.17546 (Simulation time: 0 hr 0 min 45 sec) 
Heartbeat CPU 0 instructions: 2000000 cycles: 630170 heartbeat IPC: 3.17204 cumulative IPC: 3.17375 (Simulation time: 0 hr 1 min 30 sec) 
Heartbeat CPU 0 instructions: 3000001 cycles: 945979 heartbeat IPC: 3.16647 cumulative IPC: 3.17132 (Simulation time: 0 hr 2 min 10 sec) 
Heartbeat CPU 0 instructions: 4000000 cycles: 1260333 heartbeat IPC: 3.18112 cumulative IPC: 3.17376 (Simulation time: 0 hr 2 min 54 sec) 
Heartbeat CPU 0 instructions: 5000001 cycles: 1576818 heartbeat IPC: 3.15971 cumulative IPC: 3.17094 (Simulation time: 0 hr 3 min 35 sec) 
Heartbeat CPU 0 instructions: 6000002 cycles: 1891318 heartbeat IPC: 3.17965 cumulative IPC: 3.17239 (Simulation time: 0 hr 4 min 14 sec) 
Heartbeat CPU 0 instructions: 7000001 cycles: 2206981 heartbeat IPC: 3.16793 cumulative IPC: 3.17175 (Simulation time: 0 hr 4 min 54 sec) 
Heartbeat CPU 0 instructions: 8000000 cycles: 2522385 heartbeat IPC: 3.17053 cumulative IPC: 3.1716 (Simulation time: 0 hr 5 min 32 sec) 
Heartbeat CPU 0 instructions: 9000002 cycles: 2837144 heartbeat IPC: 3.17704 cumulative IPC: 3.1722 (Simulation time: 0 hr 6 min 11 sec) 
Heartbeat CPU 0 instructions: 10000003 cycles: 3153454 heartbeat IPC: 3.16146 cumulative IPC: 3.17113 (Simulation time: 0 hr 6 min 56 sec) 
Heartbeat CPU 0 instructions: 11000001 cycles: 3467723 heartbeat IPC: 3.18198 cumulative IPC: 3.17211 (Simulation time: 0 hr 7 min 35 sec) 
Heartbeat CPU 0 instructions: 12000000 cycles: 3783792 heartbeat IPC: 3.16386 cumulative IPC: 3.17142 (Simulation time: 0 hr 8 min 14 sec) 
Heartbeat CPU 0 instructions: 13000003 cycles: 4264651 heartbeat IPC: 2.07962 cumulative IPC: 3.04832 (Simulation time: 0 hr 9 min 5 sec) 
Heartbeat CPU 0 instructions: 14000001 cycles: 4772750 heartbeat IPC: 1.96812 cumulative IPC: 2.93332 (Simulation time: 0 hr 10 min 1 sec) 
Heartbeat CPU 0 instructions: 15000001 cycles: 5279404 heartbeat IPC: 1.97373 cumulative IPC: 2.84123 (Simulation time: 0 hr 11 min 1 sec) 
Heartbeat CPU 0 instructions: 16000000 cycles: 5788628 heartbeat IPC: 1.96377 cumulative IPC: 2.76404 (Simulation time: 0 hr 12 min 1 sec) 
Heartbeat CPU 0 instructions: 17000000 cycles: 6300340 heartbeat IPC: 1.95422 cumulative IPC: 2.69827 (Simulation time: 0 hr 12 min 55 sec) 
Heartbeat CPU 0 instructions: 18000000 cycles: 6813181 heartbeat IPC: 1.94992 cumulative IPC: 2.64194 (Simulation time: 0 hr 13 min 55 sec) 
Heartbeat CPU 0 instructions: 19000000 cycles: 7322395 heartbeat IPC: 1.96381 cumulative IPC: 2.59478 (Simulation time: 0 hr 14 min 59 sec) 
Heartbeat CPU 0 instructions: 20000000 cycles: 7829903 heartbeat IPC: 1.97041 cumulative IPC: 2.55431 (Simulation time: 0 hr 16 min 0 sec) 
Heartbeat CPU 0 instructions: 21000000 cycles: 8337993 heartbeat IPC: 1.96816 cumulative IPC: 2.51859 (Simulation time: 0 hr 17 min 4 sec) 
Heartbeat CPU 0 instructions: 22000003 cycles: 8846001 heartbeat IPC: 1.96848 cumulative IPC: 2.487 (Simulation time: 0 hr 18 min 4 sec) 
Heartbeat CPU 0 instructions: 23000000 cycles: 9351005 heartbeat IPC: 1.98018 cumulative IPC: 2.45963 (Simulation time: 0 hr 19 min 4 sec) 
Heartbeat CPU 0 instructions: 24000000 cycles: 9861573 heartbeat IPC: 1.9586 cumulative IPC: 2.43369 (Simulation time: 0 hr 20 min 6 sec) 
Heartbeat CPU 0 instructions: 25000000 cycles: 10373026 heartbeat IPC: 1.95521 cumulative IPC: 2.4101 (Simulation time: 0 hr 21 min 9 sec) 
Heartbeat CPU 0 instructions: 26000000 cycles: 10885679 heartbeat IPC: 1.95064 cumulative IPC: 2.38846 (Simulation time: 0 hr 22 min 11 sec) 
Heartbeat CPU 0 instructions: 27000000 cycles: 11394032 heartbeat IPC: 1.96714 cumulative IPC: 2.36966 (Simulation time: 0 hr 23 min 11 sec) 
Heartbeat CPU 0 instructions: 28000000 cycles: 11879872 heartbeat IPC: 2.05829 cumulative IPC: 2.35693 (Simulation time: 0 hr 24 min 16 sec) 
Heartbeat CPU 0 instructions: 29000002 cycles: 12219283 heartbeat IPC: 2.94629 cumulative IPC: 2.3733 (Simulation time: 0 hr 25 min 12 sec) 
Heartbeat CPU 0 instructions: 30000001 cycles: 12558692 heartbeat IPC: 2.94629 cumulative IPC: 2.38878 (Simulation time: 0 hr 26 min 9 sec) 
Heartbeat CPU 0 instructions: 31000000 cycles: 12898106 heartbeat IPC: 2.94625 cumulative IPC: 2.40345 (Simulation time: 0 hr 27 min 7 sec) 
Heartbeat CPU 0 instructions: 32000000 cycles: 13237511 heartbeat IPC: 2.94633 cumulative IPC: 2.41737 (Simulation time: 0 hr 28 min 0 sec) 
Heartbeat CPU 0 instructions: 33000000 cycles: 13576921 heartbeat IPC: 2.94629 cumulative IPC: 2.4306 (Simulation time: 0 hr 28 min 53 sec) 
Heartbeat CPU 0 instructions: 34000002 cycles: 13916331 heartbeat IPC: 2.9463 cumulative IPC: 2.44317 (Simulation time: 0 hr 29 min 51 sec) 
Heartbeat CPU 0 instructions: 35000001 cycles: 14255743 heartbeat IPC: 2.94627 cumulative IPC: 2.45515 (Simulation time: 0 hr 30 min 43 sec) 
Heartbeat CPU 0 instructions: 36000000 cycles: 14595152 heartbeat IPC: 2.94629 cumulative IPC: 2.46657 (Simulation time: 0 hr 31 min 37 sec) 
Heartbeat CPU 0 instructions: 37000003 cycles: 14934562 heartbeat IPC: 2.9463 cumulative IPC: 2.47747 (Simulation time: 0 hr 32 min 31 sec) 
Heartbeat CPU 0 instructions: 38000002 cycles: 15273971 heartbeat IPC: 2.94629 cumulative IPC: 2.48789 (Simulation time: 0 hr 33 min 24 sec) 
Heartbeat CPU 0 instructions: 39000001 cycles: 15613380 heartbeat IPC: 2.94629 cumulative IPC: 2.49786 (Simulation time: 0 hr 34 min 15 sec) 
Heartbeat CPU 0 instructions: 40000000 cycles: 15952789 heartbeat IPC: 2.94629 cumulative IPC: 2.5074 (Simulation time: 0 hr 35 min 7 sec) 
Heartbeat CPU 0 instructions: 41000001 cycles: 16292201 heartbeat IPC: 2.94627 cumulative IPC: 2.51654 (Simulation time: 0 hr 36 min 1 sec) 
Heartbeat CPU 0 instructions: 42000000 cycles: 16631610 heartbeat IPC: 2.94629 cumulative IPC: 2.52531 (Simulation time: 0 hr 36 min 55 sec) 
Heartbeat CPU 0 instructions: 43000002 cycles: 16971020 heartbeat IPC: 2.9463 cumulative IPC: 2.53373 (Simulation time: 0 hr 37 min 46 sec) 
Heartbeat CPU 0 instructions: 44000000 cycles: 17310429 heartbeat IPC: 2.94629 cumulative IPC: 2.54182 (Simulation time: 0 hr 38 min 37 sec) 
Heartbeat CPU 0 instructions: 45000000 cycles: 17649838 heartbeat IPC: 2.9463 cumulative IPC: 2.5496 (Simulation time: 0 hr 39 min 30 sec) 
Heartbeat CPU 0 instructions: 46000003 cycles: 17989248 heartbeat IPC: 2.9463 cumulative IPC: 2.55708 (Simulation time: 0 hr 40 min 24 sec) 
Heartbeat CPU 0 instructions: 47000001 cycles: 18365107 heartbeat IPC: 2.66057 cumulative IPC: 2.5592 (Simulation time: 0 hr 41 min 22 sec) 
Heartbeat CPU 0 instructions: 48000000 cycles: 18859773 heartbeat IPC: 2.02156 cumulative IPC: 2.5451 (Simulation time: 0 hr 42 min 22 sec) 
Heartbeat CPU 0 instructions: 49000000 cycles: 19352567 heartbeat IPC: 2.02925 cumulative IPC: 2.53196 (Simulation time: 0 hr 43 min 25 sec) 
Heartbeat CPU 0 instructions: 50000001 cycles: 19853202 heartbeat IPC: 1.99747 cumulative IPC: 2.51849 (Simulation time: 0 hr 44 min 24 sec) 

Warmup complete CPU 0 instructions: 50000001 cycles: 19853202 (Simulation time: 0 hr 44 min 24 sec) 

Heartbeat CPU 0 instructions: 51000000 cycles: 22210207 heartbeat IPC: 0.424267 cumulative IPC: 0.424267 (Simulation time: 0 hr 45 min 49 sec) 
Heartbeat CPU 0 instructions: 52000000 cycles: 24568799 heartbeat IPC: 0.423982 cumulative IPC: 0.424124 (Simulation time: 0 hr 47 min 12 sec) 
Heartbeat CPU 0 instructions: 53000003 cycles: 26913979 heartbeat IPC: 0.426408 cumulative IPC: 0.424883 (Simulation time: 0 hr 48 min 34 sec) 
Heartbeat CPU 0 instructions: 54000003 cycles: 29248391 heartbeat IPC: 0.428373 cumulative IPC: 0.42575 (Simulation time: 0 hr 50 min 5 sec) 
Heartbeat CPU 0 instructions: 55000002 cycles: 31594451 heartbeat IPC: 0.426246 cumulative IPC: 0.425849 (Simulation time: 0 hr 51 min 36 sec) 
Heartbeat CPU 0 instructions: 56000000 cycles: 33960193 heartbeat IPC: 0.4227 cumulative IPC: 0.425321 (Simulation time: 0 hr 53 min 0 sec) 
Heartbeat CPU 0 instructions: 57000001 cycles: 36321754 heartbeat IPC: 0.423449 cumulative IPC: 0.425053 (Simulation time: 0 hr 54 min 23 sec) 
Heartbeat CPU 0 instructions: 58000000 cycles: 38683986 heartbeat IPC: 0.423328 cumulative IPC: 0.424836 (Simulation time: 0 hr 55 min 50 sec) 
Heartbeat CPU 0 instructions: 59000000 cycles: 41025300 heartbeat IPC: 0.427111 cumulative IPC: 0.425088 (Simulation time: 0 hr 57 min 17 sec) 
Heartbeat CPU 0 instructions: 60000000 cycles: 43372895 heartbeat IPC: 0.425968 cumulative IPC: 0.425176 (Simulation time: 0 hr 58 min 44 sec) 
Heartbeat CPU 0 instructions: 61000001 cycles: 45714637 heartbeat IPC: 0.427033 cumulative IPC: 0.425344 (Simulation time: 1 hr 0 min 9 sec) 
Heartbeat CPU 0 instructions: 62000000 cycles: 48073795 heartbeat IPC: 0.42388 cumulative IPC: 0.425221 (Simulation time: 1 hr 1 min 37 sec) 
Heartbeat CPU 0 instructions: 63000001 cycles: 50291052 heartbeat IPC: 0.451008 cumulative IPC: 0.4271 (Simulation time: 1 hr 2 min 59 sec) 
Heartbeat CPU 0 instructions: 64000000 cycles: 52461523 heartbeat IPC: 0.460729 cumulative IPC: 0.429338 (Simulation time: 1 hr 4 min 20 sec) 
Heartbeat CPU 0 instructions: 65000000 cycles: 54625365 heartbeat IPC: 0.462141 cumulative IPC: 0.43138 (Simulation time: 1 hr 5 min 39 sec) 
Heartbeat CPU 0 instructions: 66000001 cycles: 56833590 heartbeat IPC: 0.452853 cumulative IPC: 0.432662 (Simulation time: 1 hr 6 min 54 sec) 
Heartbeat CPU 0 instructions: 67000000 cycles: 58965904 heartbeat IPC: 0.468974 cumulative IPC: 0.434641 (Simulation time: 1 hr 8 min 8 sec) 
Heartbeat CPU 0 instructions: 68000000 cycles: 61176774 heartbeat IPC: 0.452311 cumulative IPC: 0.435587 (Simulation time: 1 hr 9 min 26 sec) 
Heartbeat CPU 0 instructions: 69000002 cycles: 63334660 heartbeat IPC: 0.463417 cumulative IPC: 0.436968 (Simulation time: 1 hr 10 min 41 sec) 
Heartbeat CPU 0 instructions: 70000001 cycles: 65521076 heartbeat IPC: 0.457369 cumulative IPC: 0.437945 (Simulation time: 1 hr 11 min 55 sec) 
Heartbeat CPU 0 instructions: 71000000 cycles: 67695771 heartbeat IPC: 0.459834 cumulative IPC: 0.43894 (Simulation time: 1 hr 13 min 5 sec) 
Heartbeat CPU 0 instructions: 72000000 cycles: 69861119 heartbeat IPC: 0.46182 cumulative IPC: 0.43993 (Simulation time: 1 hr 14 min 19 sec) 
Heartbeat CPU 0 instructions: 73000002 cycles: 72051877 heartbeat IPC: 0.456464 cumulative IPC: 0.440624 (Simulation time: 1 hr 15 min 32 sec) 
Heartbeat CPU 0 instructions: 74000002 cycles: 74201656 heartbeat IPC: 0.465164 cumulative IPC: 0.441595 (Simulation time: 1 hr 16 min 48 sec) 
Heartbeat CPU 0 instructions: 75000001 cycles: 76391587 heartbeat IPC: 0.456635 cumulative IPC: 0.442177 (Simulation time: 1 hr 18 min 1 sec) 
Heartbeat CPU 0 instructions: 76000000 cycles: 78569905 heartbeat IPC: 0.459069 cumulative IPC: 0.442804 (Simulation time: 1 hr 19 min 17 sec) 
Heartbeat CPU 0 instructions: 77000000 cycles: 80721092 heartbeat IPC: 0.46486 cumulative IPC: 0.443584 (Simulation time: 1 hr 20 min 32 sec) 
Heartbeat CPU 0 instructions: 78000002 cycles: 82916735 heartbeat IPC: 0.455448 cumulative IPC: 0.443997 (Simulation time: 1 hr 21 min 49 sec) 
Heartbeat CPU 0 instructions: 79000001 cycles: 85081275 heartbeat IPC: 0.461991 cumulative IPC: 0.444594 (Simulation time: 1 hr 23 min 3 sec) 
Heartbeat CPU 0 instructions: 80000000 cycles: 87270993 heartbeat IPC: 0.456679 cumulative IPC: 0.444986 (Simulation time: 1 hr 24 min 16 sec) 
Heartbeat CPU 0 instructions: 81000000 cycles: 89438017 heartbeat IPC: 0.461462 cumulative IPC: 0.445499 (Simulation time: 1 hr 25 min 32 sec) 
Heartbeat CPU 0 instructions: 82000000 cycles: 91609182 heartbeat IPC: 0.460582 cumulative IPC: 0.445956 (Simulation time: 1 hr 26 min 45 sec) 
Heartbeat CPU 0 instructions: 83000001 cycles: 94013003 heartbeat IPC: 0.416005 cumulative IPC: 0.444985 (Simulation time: 1 hr 28 min 4 sec) 
Heartbeat CPU 0 instructions: 84000000 cycles: 96552962 heartbeat IPC: 0.393707 cumulative IPC: 0.443287 (Simulation time: 1 hr 29 min 28 sec) 
Heartbeat CPU 0 instructions: 85000001 cycles: 99090591 heartbeat IPC: 0.394069 cumulative IPC: 0.441711 (Simulation time: 1 hr 30 min 51 sec) 
Heartbeat CPU 0 instructions: 86000001 cycles: 101639522 heartbeat IPC: 0.392321 cumulative IPC: 0.440171 (Simulation time: 1 hr 32 min 18 sec) 
Heartbeat CPU 0 instructions: 87000003 cycles: 104202208 heartbeat IPC: 0.390216 cumulative IPC: 0.438654 (Simulation time: 1 hr 33 min 43 sec) 
Heartbeat CPU 0 instructions: 88000000 cycles: 106757501 heartbeat IPC: 0.391343 cumulative IPC: 0.437263 (Simulation time: 1 hr 35 min 8 sec) 
Heartbeat CPU 0 instructions: 89000001 cycles: 109323129 heartbeat IPC: 0.389769 cumulative IPC: 0.435901 (Simulation time: 1 hr 36 min 31 sec) 
Heartbeat CPU 0 instructions: 90000000 cycles: 111861358 heartbeat IPC: 0.393975 cumulative IPC: 0.434744 (Simulation time: 1 hr 37 min 52 sec) 
Heartbeat CPU 0 instructions: 91000002 cycles: 114388198 heartbeat IPC: 0.395752 cumulative IPC: 0.433702 (Simulation time: 1 hr 39 min 12 sec) 
Heartbeat CPU 0 instructions: 92000000 cycles: 116944167 heartbeat IPC: 0.39124 cumulative IPC: 0.432584 (Simulation time: 1 hr 40 min 34 sec) 
Heartbeat CPU 0 instructions: 93000003 cycles: 119478864 heartbeat IPC: 0.394526 cumulative IPC: 0.431616 (Simulation time: 1 hr 41 min 55 sec) 
Heartbeat CPU 0 instructions: 94000000 cycles: 122026819 heartbeat IPC: 0.39247 cumulative IPC: 0.43064 (Simulation time: 1 hr 43 min 12 sec) 
Heartbeat CPU 0 instructions: 95000002 cycles: 124587630 heartbeat IPC: 0.390502 cumulative IPC: 0.429658 (Simulation time: 1 hr 44 min 30 sec) 
Heartbeat CPU 0 instructions: 96000000 cycles: 127135043 heartbeat IPC: 0.392554 cumulative IPC: 0.428777 (Simulation time: 1 hr 45 min 48 sec) 
Heartbeat CPU 0 instructions: 97000001 cycles: 129704826 heartbeat IPC: 0.389138 cumulative IPC: 0.42785 (Simulation time: 1 hr 47 min 5 sec) 
Heartbeat CPU 0 instructions: 98000002 cycles: 132249115 heartbeat IPC: 0.393037 cumulative IPC: 0.427062 (Simulation time: 1 hr 48 min 25 sec) 
Heartbeat CPU 0 instructions: 99000002 cycles: 134025523 heartbeat IPC: 0.562934 cumulative IPC: 0.429176 (Simulation time: 1 hr 49 min 50 sec) 
Heartbeat CPU 0 instructions: 100000000 cycles: 135558803 heartbeat IPC: 0.652195 cumulative IPC: 0.432131 (Simulation time: 1 hr 51 min 8 sec) 
Heartbeat CPU 0 instructions: 101000000 cycles: 136988154 heartbeat IPC: 0.699618 cumulative IPC: 0.435395 (Simulation time: 1 hr 52 min 27 sec) 
Heartbeat CPU 0 instructions: 102000003 cycles: 138414748 heartbeat IPC: 0.700972 cumulative IPC: 0.438591 (Simulation time: 1 hr 53 min 44 sec) 
Heartbeat CPU 0 instructions: 103000002 cycles: 139841344 heartbeat IPC: 0.700969 cumulative IPC: 0.44171 (Simulation time: 1 hr 55 min 3 sec) 
Heartbeat CPU 0 instructions: 104000000 cycles: 141268008 heartbeat IPC: 0.700934 cumulative IPC: 0.444756 (Simulation time: 1 hr 56 min 22 sec) 
Heartbeat CPU 0 instructions: 105000000 cycles: 142694722 heartbeat IPC: 0.700911 cumulative IPC: 0.447731 (Simulation time: 1 hr 57 min 37 sec) 
Heartbeat CPU 0 instructions: 106000001 cycles: 144121315 heartbeat IPC: 0.700971 cumulative IPC: 0.450639 (Simulation time: 1 hr 58 min 53 sec) 
Heartbeat CPU 0 instructions: 107000000 cycles: 145547911 heartbeat IPC: 0.700969 cumulative IPC: 0.45348 (Simulation time: 2 hr 0 min 12 sec) 
Heartbeat CPU 0 instructions: 108000000 cycles: 146974576 heartbeat IPC: 0.700935 cumulative IPC: 0.456257 (Simulation time: 2 hr 1 min 29 sec) 
Heartbeat CPU 0 instructions: 109000001 cycles: 148401292 heartbeat IPC: 0.700911 cumulative IPC: 0.458972 (Simulation time: 2 hr 2 min 45 sec) 
Heartbeat CPU 0 instructions: 110000000 cycles: 149827884 heartbeat IPC: 0.700971 cumulative IPC: 0.461628 (Simulation time: 2 hr 4 min 0 sec) 
Heartbeat CPU 0 instructions: 111000001 cycles: 151254484 heartbeat IPC: 0.700968 cumulative IPC: 0.464227 (Simulation time: 2 hr 5 min 18 sec) 
Heartbeat CPU 0 instructions: 112000000 cycles: 152681146 heartbeat IPC: 0.700936 cumulative IPC: 0.466769 (Simulation time: 2 hr 6 min 31 sec) 
Heartbeat CPU 0 instructions: 113000001 cycles: 154107877 heartbeat IPC: 0.700904 cumulative IPC: 0.469257 (Simulation time: 2 hr 7 min 45 sec) 
Heartbeat CPU 0 instructions: 114000000 cycles: 155534658 heartbeat IPC: 0.700878 cumulative IPC: 0.471693 (Simulation time: 2 hr 9 min 3 sec) 
Heartbeat CPU 0 instructions: 115000000 cycles: 156961249 heartbeat IPC: 0.700972 cumulative IPC: 0.474079 (Simulation time: 2 hr 10 min 19 sec) 
Heartbeat CPU 0 instructions: 116000000 cycles: 158387840 heartbeat IPC: 0.700972 cumulative IPC: 0.476415 (Simulation time: 2 hr 11 min 38 sec) 
Heartbeat CPU 0 instructions: 117000000 cycles: 159817481 heartbeat IPC: 0.699476 cumulative IPC: 0.478694 (Simulation time: 2 hr 12 min 54 sec) 
Heartbeat CPU 0 instructions: 118000000 cycles: 161877178 heartbeat IPC: 0.485508 cumulative IPC: 0.478792 (Simulation time: 2 hr 14 min 10 sec) 
Heartbeat CPU 0 instructions: 119000000 cycles: 164175027 heartbeat IPC: 0.43519 cumulative IPC: 0.478098 (Simulation time: 2 hr 15 min 32 sec) 
Heartbeat CPU 0 instructions: 120000000 cycles: 166534543 heartbeat IPC: 0.423816 cumulative IPC: 0.477225 (Simulation time: 2 hr 16 min 50 sec) 
Heartbeat CPU 0 instructions: 121000003 cycles: 168891339 heartbeat IPC: 0.424306 cumulative IPC: 0.476388 (Simulation time: 2 hr 18 min 6 sec) 
Heartbeat CPU 0 instructions: 122000000 cycles: 171248874 heartbeat IPC: 0.424171 cumulative IPC: 0.475575 (Simulation time: 2 hr 19 min 28 sec) 
Heartbeat CPU 0 instructions: 123000001 cycles: 173606568 heartbeat IPC: 0.424144 cumulative IPC: 0.474786 (Simulation time: 2 hr 20 min 43 sec) 
Heartbeat CPU 0 instructions: 124000000 cycles: 175943157 heartbeat IPC: 0.427974 cumulative IPC: 0.474086 (Simulation time: 2 hr 21 min 59 sec) 
Heartbeat CPU 0 instructions: 125000001 cycles: 178290694 heartbeat IPC: 0.425979 cumulative IPC: 0.473373 (Simulation time: 2 hr 23 min 20 sec) 
Heartbeat CPU 0 instructions: 126000001 cycles: 180643065 heartbeat IPC: 0.425103 cumulative IPC: 0.472667 (Simulation time: 2 hr 24 min 37 sec) 
Heartbeat CPU 0 instructions: 127000003 cycles: 183002122 heartbeat IPC: 0.423899 cumulative IPC: 0.471961 (Simulation time: 2 hr 26 min 1 sec) 
Heartbeat CPU 0 instructions: 128000000 cycles: 185356631 heartbeat IPC: 0.424716 cumulative IPC: 0.471289 (Simulation time: 2 hr 27 min 27 sec) 
Heartbeat CPU 0 instructions: 129000002 cycles: 187711547 heartbeat IPC: 0.424644 cumulative IPC: 0.470635 (Simulation time: 2 hr 28 min 50 sec) 
Heartbeat CPU 0 instructions: 130000002 cycles: 190063679 heartbeat IPC: 0.425146 cumulative IPC: 0.470006 (Simulation time: 2 hr 30 min 8 sec) 
Heartbeat CPU 0 instructions: 131000002 cycles: 192407156 heartbeat IPC: 0.426716 cumulative IPC: 0.469418 (Simulation time: 2 hr 31 min 27 sec) 
Heartbeat CPU 0 instructions: 132000000 cycles: 194767184 heartbeat IPC: 0.423723 cumulative IPC: 0.468802 (Simulation time: 2 hr 32 min 47 sec) 
Heartbeat CPU 0 instructions: 133000000 cycles: 196924563 heartbeat IPC: 0.463525 cumulative IPC: 0.468738 (Simulation time: 2 hr 34 min 7 sec) 
Heartbeat CPU 0 instructions: 134000003 cycles: 198636912 heartbeat IPC: 0.583995 cumulative IPC: 0.469841 (Simulation time: 2 hr 35 min 27 sec) 
Heartbeat CPU 0 instructions: 135000002 cycles: 200170611 heartbeat IPC: 0.652018 cumulative IPC: 0.471391 (Simulation time: 2 hr 36 min 51 sec) 
Heartbeat CPU 0 instructions: 136000000 cycles: 201680605 heartbeat IPC: 0.662253 cumulative IPC: 0.472976 (Simulation time: 2 hr 38 min 10 sec) 
Heartbeat CPU 0 instructions: 137000000 cycles: 203190648 heartbeat IPC: 0.662233 cumulative IPC: 0.474535 (Simulation time: 2 hr 39 min 28 sec) 
Heartbeat CPU 0 instructions: 138000001 cycles: 204700771 heartbeat IPC: 0.662198 cumulative IPC: 0.476068 (Simulation time: 2 hr 40 min 48 sec) 
Heartbeat CPU 0 instructions: 139000000 cycles: 206210691 heartbeat IPC: 0.662286 cumulative IPC: 0.477577 (Simulation time: 2 hr 42 min 7 sec) 
Heartbeat CPU 0 instructions: 140000000 cycles: 207720802 heartbeat IPC: 0.662203 cumulative IPC: 0.479061 (Simulation time: 2 hr 43 min 24 sec) 
Heartbeat CPU 0 instructions: 141000001 cycles: 209230954 heartbeat IPC: 0.662186 cumulative IPC: 0.480521 (Simulation time: 2 hr 44 min 41 sec) 
Heartbeat CPU 0 instructions: 142000000 cycles: 210740872 heartbeat IPC: 0.662287 cumulative IPC: 0.481959 (Simulation time: 2 hr 45 min 59 sec) 
Heartbeat CPU 0 instructions: 143000003 cycles: 212250800 heartbeat IPC: 0.662285 cumulative IPC: 0.483374 (Simulation time: 2 hr 47 min 21 sec) 
Heartbeat CPU 0 instructions: 144000000 cycles: 213760792 heartbeat IPC: 0.662253 cumulative IPC: 0.484767 (Simulation time: 2 hr 48 min 38 sec) 
Heartbeat CPU 0 instructions: 145000001 cycles: 215270834 heartbeat IPC: 0.662234 cumulative IPC: 0.486138 (Simulation time: 2 hr 49 min 57 sec) 
Heartbeat CPU 0 instructions: 146000000 cycles: 216780754 heartbeat IPC: 0.662286 cumulative IPC: 0.487489 (Simulation time: 2 hr 51 min 4 sec) 
Heartbeat CPU 0 instructions: 147000001 cycles: 218290679 heartbeat IPC: 0.662285 cumulative IPC: 0.488819 (Simulation time: 2 hr 52 min 17 sec) 
Heartbeat CPU 0 instructions: 148000000 cycles: 219800671 heartbeat IPC: 0.662255 cumulative IPC: 0.490129 (Simulation time: 2 hr 53 min 33 sec) 
Heartbeat CPU 0 instructions: 149000002 cycles: 221310715 heartbeat IPC: 0.662234 cumulative IPC: 0.491419 (Simulation time: 2 hr 54 min 44 sec) 
Heartbeat CPU 0 instructions: 150000001 cycles: 222820635 heartbeat IPC: 0.662286 cumulative IPC: 0.49269 (Simulation time: 2 hr 55 min 58 sec) 
Finished CPU 0 instructions: 100000000 cycles: 202967433 cummulative IPC: 0.49269 (Simulation time: 2 hr 55 min 58 sec) 

ChampSim completed all CPUs

Region of Interest Statistics

CPU 0 cummulative IPC: 0.49269 instructions: 100000000 cycles: 202967433
LLC TOTAL     ACCESS:    3948315  HIT:     954390  MISS:    2993925
LLC LOAD      ACCESS:     888698  HIT:          0  MISS:     888698
LLC RFO       ACCESS:         21  HIT:          0  MISS:         21
LLC PREFETCH  ACCESS:    2105206  HIT:          0  MISS:    2105206
LLC WRITEBACK ACCESS:     954390  HIT:     954390  MISS:          0
