
*** ChampSim Multicore Out-of-Order Simulator ***

Warmup Instructions: 50000000
Simulation Instructions: 100000000
Configuration: 2
Number of CPUs: 1
LLC sets: 2048
LLC ways: 16
Off-chip DRAM Channels: 1 Width: 64-bit Data Rate: 1600 MT/s

CPU 0 runs /datasets/cs240c-wi22-a00-public/data/Assignment2-gz/cactusADM_734B.trace.gz
CPU 0 L1D next line prefetcher
CPU 0 L2C IP-based stride prefetcher
Initialize LRU replacement state
Heartbeat CPU 0 instructions: 1000003 cycles: 592726 heartbeat IPC: 1.68713 cumulative IPC: 1.68713 (Simulation time: 0 hr 1 min 32 sec) 
Heartbeat CPU 0 instructions: 2000001 cycles: 1185927 heartbeat IPC: 1.68577 cumulative IPC: 1.68645 (Simulation time: 0 hr 3 min 2 sec) 
Heartbeat CPU 0 instructions: 3000003 cycles: 1778979 heartbeat IPC: 1.6862 cumulative IPC: 1.68636 (Simulation time: 0 hr 4 min 30 sec) 
Heartbeat CPU 0 instructions: 4000000 cycles: 2371929 heartbeat IPC: 1.68648 cumulative IPC: 1.68639 (Simulation time: 0 hr 6 min 0 sec) 
Heartbeat CPU 0 instructions: 5000000 cycles: 2965279 heartbeat IPC: 1.68535 cumulative IPC: 1.68618 (Simulation time: 0 hr 7 min 34 sec) 
Heartbeat CPU 0 instructions: 6000002 cycles: 3558551 heartbeat IPC: 1.68557 cumulative IPC: 1.68608 (Simulation time: 0 hr 9 min 6 sec) 
Heartbeat CPU 0 instructions: 7000000 cycles: 4151394 heartbeat IPC: 1.68678 cumulative IPC: 1.68618 (Simulation time: 0 hr 10 min 42 sec) 
Heartbeat CPU 0 instructions: 8000000 cycles: 4744343 heartbeat IPC: 1.68649 cumulative IPC: 1.68622 (Simulation time: 0 hr 12 min 17 sec) 
Heartbeat CPU 0 instructions: 9000001 cycles: 5337493 heartbeat IPC: 1.68592 cumulative IPC: 1.68619 (Simulation time: 0 hr 13 min 54 sec) 
Heartbeat CPU 0 instructions: 10000003 cycles: 5958967 heartbeat IPC: 1.60908 cumulative IPC: 1.67814 (Simulation time: 0 hr 15 min 37 sec) 
Heartbeat CPU 0 instructions: 11000003 cycles: 6686419 heartbeat IPC: 1.37466 cumulative IPC: 1.64513 (Simulation time: 0 hr 17 min 34 sec) 
Heartbeat CPU 0 instructions: 12000000 cycles: 7279118 heartbeat IPC: 1.68719 cumulative IPC: 1.64855 (Simulation time: 0 hr 19 min 24 sec) 
Heartbeat CPU 0 instructions: 13000002 cycles: 7872726 heartbeat IPC: 1.68462 cumulative IPC: 1.65127 (Simulation time: 0 hr 21 min 13 sec) 
Heartbeat CPU 0 instructions: 14000000 cycles: 8465860 heartbeat IPC: 1.68596 cumulative IPC: 1.6537 (Simulation time: 0 hr 22 min 55 sec) 
Heartbeat CPU 0 instructions: 15000000 cycles: 9058756 heartbeat IPC: 1.68664 cumulative IPC: 1.65586 (Simulation time: 0 hr 24 min 34 sec) 
Heartbeat CPU 0 instructions: 16000000 cycles: 9652000 heartbeat IPC: 1.68565 cumulative IPC: 1.65769 (Simulation time: 0 hr 26 min 17 sec) 
Heartbeat CPU 0 instructions: 17000002 cycles: 10245117 heartbeat IPC: 1.68601 cumulative IPC: 1.65933 (Simulation time: 0 hr 27 min 57 sec) 
Heartbeat CPU 0 instructions: 18000001 cycles: 10838563 heartbeat IPC: 1.68507 cumulative IPC: 1.66074 (Simulation time: 0 hr 29 min 35 sec) 
Heartbeat CPU 0 instructions: 19000001 cycles: 11431364 heartbeat IPC: 1.68691 cumulative IPC: 1.66209 (Simulation time: 0 hr 31 min 21 sec) 
Heartbeat CPU 0 instructions: 20000000 cycles: 12024593 heartbeat IPC: 1.68569 cumulative IPC: 1.66326 (Simulation time: 0 hr 33 min 3 sec) 
Heartbeat CPU 0 instructions: 21000002 cycles: 12617871 heartbeat IPC: 1.68555 cumulative IPC: 1.66431 (Simulation time: 0 hr 34 min 42 sec) 
Heartbeat CPU 0 instructions: 22000000 cycles: 13210908 heartbeat IPC: 1.68623 cumulative IPC: 1.66529 (Simulation time: 0 hr 36 min 22 sec) 
Heartbeat CPU 0 instructions: 23000001 cycles: 13804303 heartbeat IPC: 1.68522 cumulative IPC: 1.66615 (Simulation time: 0 hr 38 min 5 sec) 
Heartbeat CPU 0 instructions: 24000000 cycles: 14558676 heartbeat IPC: 1.3256 cumulative IPC: 1.6485 (Simulation time: 0 hr 40 min 11 sec) 
Heartbeat CPU 0 instructions: 25000000 cycles: 15151676 heartbeat IPC: 1.68634 cumulative IPC: 1.64998 (Simulation time: 0 hr 41 min 51 sec) 
Heartbeat CPU 0 instructions: 26000001 cycles: 15744355 heartbeat IPC: 1.68726 cumulative IPC: 1.65139 (Simulation time: 0 hr 43 min 31 sec) 
Heartbeat CPU 0 instructions: 27000003 cycles: 16337739 heartbeat IPC: 1.68525 cumulative IPC: 1.65262 (Simulation time: 0 hr 45 min 17 sec) 
Heartbeat CPU 0 instructions: 28000000 cycles: 16930716 heartbeat IPC: 1.6864 cumulative IPC: 1.6538 (Simulation time: 0 hr 47 min 2 sec) 
Heartbeat CPU 0 instructions: 29000001 cycles: 17523978 heartbeat IPC: 1.6856 cumulative IPC: 1.65488 (Simulation time: 0 hr 48 min 47 sec) 
Heartbeat CPU 0 instructions: 30000001 cycles: 18116559 heartbeat IPC: 1.68753 cumulative IPC: 1.65594 (Simulation time: 0 hr 50 min 35 sec) 
Heartbeat CPU 0 instructions: 31000000 cycles: 18709689 heartbeat IPC: 1.68597 cumulative IPC: 1.6569 (Simulation time: 0 hr 52 min 22 sec) 
Heartbeat CPU 0 instructions: 32000000 cycles: 19302794 heartbeat IPC: 1.68604 cumulative IPC: 1.65779 (Simulation time: 0 hr 54 min 8 sec) 
Heartbeat CPU 0 instructions: 33000000 cycles: 19895551 heartbeat IPC: 1.68703 cumulative IPC: 1.65866 (Simulation time: 0 hr 55 min 57 sec) 
Heartbeat CPU 0 instructions: 34000002 cycles: 20488814 heartbeat IPC: 1.6856 cumulative IPC: 1.65944 (Simulation time: 0 hr 57 min 37 sec) 
Heartbeat CPU 0 instructions: 35000001 cycles: 21081838 heartbeat IPC: 1.68627 cumulative IPC: 1.6602 (Simulation time: 0 hr 59 min 17 sec) 
Heartbeat CPU 0 instructions: 36000000 cycles: 21674942 heartbeat IPC: 1.68604 cumulative IPC: 1.6609 (Simulation time: 1 hr 0 min 59 sec) 
Heartbeat CPU 0 instructions: 37000003 cycles: 22429140 heartbeat IPC: 1.32592 cumulative IPC: 1.64964 (Simulation time: 1 hr 2 min 58 sec) 
Heartbeat CPU 0 instructions: 38000001 cycles: 23022237 heartbeat IPC: 1.68606 cumulative IPC: 1.65058 (Simulation time: 1 hr 4 min 37 sec) 
Heartbeat CPU 0 instructions: 39000003 cycles: 23615218 heartbeat IPC: 1.6864 cumulative IPC: 1.65148 (Simulation time: 1 hr 6 min 17 sec) 
Heartbeat CPU 0 instructions: 40000000 cycles: 24208026 heartbeat IPC: 1.68688 cumulative IPC: 1.65234 (Simulation time: 1 hr 7 min 53 sec) 
Heartbeat CPU 0 instructions: 41000001 cycles: 24801247 heartbeat IPC: 1.68571 cumulative IPC: 1.65314 (Simulation time: 1 hr 9 min 35 sec) 
Heartbeat CPU 0 instructions: 42000002 cycles: 25394327 heartbeat IPC: 1.68611 cumulative IPC: 1.65391 (Simulation time: 1 hr 11 min 13 sec) 
Heartbeat CPU 0 instructions: 43000000 cycles: 25987393 heartbeat IPC: 1.68615 cumulative IPC: 1.65465 (Simulation time: 1 hr 12 min 50 sec) 
Heartbeat CPU 0 instructions: 44000000 cycles: 26580249 heartbeat IPC: 1.68675 cumulative IPC: 1.65536 (Simulation time: 1 hr 14 min 37 sec) 
Heartbeat CPU 0 instructions: 45000003 cycles: 27173236 heartbeat IPC: 1.68638 cumulative IPC: 1.65604 (Simulation time: 1 hr 16 min 17 sec) 
Heartbeat CPU 0 instructions: 46000003 cycles: 27766498 heartbeat IPC: 1.6856 cumulative IPC: 1.65667 (Simulation time: 1 hr 17 min 55 sec) 
Heartbeat CPU 0 instructions: 47000001 cycles: 28359112 heartbeat IPC: 1.68744 cumulative IPC: 1.65732 (Simulation time: 1 hr 19 min 39 sec) 
Heartbeat CPU 0 instructions: 48000000 cycles: 28952077 heartbeat IPC: 1.68644 cumulative IPC: 1.65791 (Simulation time: 1 hr 21 min 19 sec) 
Heartbeat CPU 0 instructions: 49000000 cycles: 29545070 heartbeat IPC: 1.68636 cumulative IPC: 1.65848 (Simulation time: 1 hr 23 min 2 sec) 
Heartbeat CPU 0 instructions: 50000000 cycles: 30300020 heartbeat IPC: 1.32459 cumulative IPC: 1.65016 (Simulation time: 1 hr 25 min 1 sec) 

Warmup complete CPU 0 instructions: 50000004 cycles: 30300021 (Simulation time: 1 hr 25 min 1 sec) 

Heartbeat CPU 0 instructions: 51000000 cycles: 32032680 heartbeat IPC: 0.577147 cumulative IPC: 0.577145 (Simulation time: 1 hr 26 min 46 sec) 
Heartbeat CPU 0 instructions: 52000000 cycles: 33774191 heartbeat IPC: 0.574214 cumulative IPC: 0.575676 (Simulation time: 1 hr 28 min 32 sec) 
Heartbeat CPU 0 instructions: 53000003 cycles: 35515639 heartbeat IPC: 0.574237 cumulative IPC: 0.575195 (Simulation time: 1 hr 30 min 17 sec) 
Heartbeat CPU 0 instructions: 54000000 cycles: 37205892 heartbeat IPC: 0.591626 cumulative IPC: 0.579217 (Simulation time: 1 hr 32 min 1 sec) 
Heartbeat CPU 0 instructions: 55000001 cycles: 38883899 heartbeat IPC: 0.595946 cumulative IPC: 0.582487 (Simulation time: 1 hr 33 min 44 sec) 
Heartbeat CPU 0 instructions: 56000000 cycles: 40638642 heartbeat IPC: 0.569883 cumulative IPC: 0.580348 (Simulation time: 1 hr 35 min 28 sec) 
Heartbeat CPU 0 instructions: 57000000 cycles: 42391140 heartbeat IPC: 0.570614 cumulative IPC: 0.578937 (Simulation time: 1 hr 37 min 11 sec) 
Heartbeat CPU 0 instructions: 58000001 cycles: 44127212 heartbeat IPC: 0.576014 cumulative IPC: 0.57857 (Simulation time: 1 hr 38 min 55 sec) 
Heartbeat CPU 0 instructions: 59000000 cycles: 45789315 heartbeat IPC: 0.601647 cumulative IPC: 0.581046 (Simulation time: 1 hr 40 min 35 sec) 
Heartbeat CPU 0 instructions: 60000000 cycles: 47498283 heartbeat IPC: 0.585148 cumulative IPC: 0.581454 (Simulation time: 1 hr 42 min 15 sec) 
Heartbeat CPU 0 instructions: 61000002 cycles: 49240301 heartbeat IPC: 0.574048 cumulative IPC: 0.580773 (Simulation time: 1 hr 43 min 56 sec) 
Heartbeat CPU 0 instructions: 62000002 cycles: 50983342 heartbeat IPC: 0.57371 cumulative IPC: 0.580178 (Simulation time: 1 hr 45 min 35 sec) 
Heartbeat CPU 0 instructions: 63000002 cycles: 58386113 heartbeat IPC: 0.135085 cumulative IPC: 0.462862 (Simulation time: 1 hr 47 min 35 sec) 
Heartbeat CPU 0 instructions: 64000000 cycles: 60344031 heartbeat IPC: 0.510746 cumulative IPC: 0.465983 (Simulation time: 1 hr 49 min 18 sec) 
Heartbeat CPU 0 instructions: 65000003 cycles: 62083190 heartbeat IPC: 0.574992 cumulative IPC: 0.471948 (Simulation time: 1 hr 50 min 58 sec) 
Heartbeat CPU 0 instructions: 66000001 cycles: 63827176 heartbeat IPC: 0.573398 cumulative IPC: 0.477225 (Simulation time: 1 hr 52 min 40 sec) 
Heartbeat CPU 0 instructions: 67000000 cycles: 65566328 heartbeat IPC: 0.574992 cumulative IPC: 0.482046 (Simulation time: 1 hr 54 min 26 sec) 
Heartbeat CPU 0 instructions: 68000000 cycles: 67232622 heartbeat IPC: 0.600134 cumulative IPC: 0.487374 (Simulation time: 1 hr 56 min 10 sec) 
Heartbeat CPU 0 instructions: 69000000 cycles: 68937202 heartbeat IPC: 0.586655 cumulative IPC: 0.491754 (Simulation time: 1 hr 57 min 54 sec) 
Heartbeat CPU 0 instructions: 70000001 cycles: 70681136 heartbeat IPC: 0.573417 cumulative IPC: 0.495281 (Simulation time: 1 hr 59 min 33 sec) 
Heartbeat CPU 0 instructions: 71000001 cycles: 72425991 heartbeat IPC: 0.573114 cumulative IPC: 0.498505 (Simulation time: 2 hr 1 min 14 sec) 
Heartbeat CPU 0 instructions: 72000000 cycles: 74149914 heartbeat IPC: 0.580072 cumulative IPC: 0.501711 (Simulation time: 2 hr 2 min 53 sec) 
Heartbeat CPU 0 instructions: 73000003 cycles: 75802375 heartbeat IPC: 0.60516 cumulative IPC: 0.505468 (Simulation time: 2 hr 4 min 38 sec) 
Heartbeat CPU 0 instructions: 74000002 cycles: 77537261 heartbeat IPC: 0.576406 cumulative IPC: 0.508074 (Simulation time: 2 hr 6 min 19 sec) 
Heartbeat CPU 0 instructions: 75000002 cycles: 79280555 heartbeat IPC: 0.573627 cumulative IPC: 0.510407 (Simulation time: 2 hr 7 min 59 sec) 
Heartbeat CPU 0 instructions: 76000000 cycles: 85478134 heartbeat IPC: 0.161353 cumulative IPC: 0.471201 (Simulation time: 2 hr 9 min 57 sec) 
Heartbeat CPU 0 instructions: 77000000 cycles: 88674272 heartbeat IPC: 0.312878 cumulative IPC: 0.462533 (Simulation time: 2 hr 11 min 54 sec) 
Heartbeat CPU 0 instructions: 78000002 cycles: 90374087 heartbeat IPC: 0.5883 cumulative IPC: 0.466091 (Simulation time: 2 hr 13 min 44 sec) 
Heartbeat CPU 0 instructions: 79000002 cycles: 92118046 heartbeat IPC: 0.573408 cumulative IPC: 0.469119 (Simulation time: 2 hr 15 min 37 sec) 
Heartbeat CPU 0 instructions: 80000000 cycles: 93859010 heartbeat IPC: 0.574393 cumulative IPC: 0.472002 (Simulation time: 2 hr 17 min 28 sec) 
Heartbeat CPU 0 instructions: 81000000 cycles: 95589189 heartbeat IPC: 0.577975 cumulative IPC: 0.474811 (Simulation time: 2 hr 19 min 19 sec) 
Heartbeat CPU 0 instructions: 82000003 cycles: 97237625 heartbeat IPC: 0.606637 cumulative IPC: 0.478057 (Simulation time: 2 hr 21 min 9 sec) 
Heartbeat CPU 0 instructions: 83000003 cycles: 98969888 heartbeat IPC: 0.57728 cumulative IPC: 0.48056 (Simulation time: 2 hr 22 min 46 sec) 
Heartbeat CPU 0 instructions: 84000000 cycles: 100711687 heartbeat IPC: 0.574117 cumulative IPC: 0.482874 (Simulation time: 2 hr 24 min 31 sec) 
Heartbeat CPU 0 instructions: 85000003 cycles: 102454485 heartbeat IPC: 0.573792 cumulative IPC: 0.48507 (Simulation time: 2 hr 26 min 18 sec) 
Heartbeat CPU 0 instructions: 86000000 cycles: 104151699 heartbeat IPC: 0.589199 cumulative IPC: 0.487463 (Simulation time: 2 hr 28 min 9 sec) 
Heartbeat CPU 0 instructions: 87000000 cycles: 105827701 heartbeat IPC: 0.596658 cumulative IPC: 0.489887 (Simulation time: 2 hr 29 min 54 sec) 
Heartbeat CPU 0 instructions: 88000000 cycles: 107597235 heartbeat IPC: 0.565121 cumulative IPC: 0.491609 (Simulation time: 2 hr 31 min 42 sec) 
Heartbeat CPU 0 instructions: 89000002 cycles: 112721633 heartbeat IPC: 0.195145 cumulative IPC: 0.473177 (Simulation time: 2 hr 33 min 36 sec) 
Heartbeat CPU 0 instructions: 90000002 cycles: 117005039 heartbeat IPC: 0.233459 cumulative IPC: 0.461334 (Simulation time: 2 hr 35 min 27 sec) 
Heartbeat CPU 0 instructions: 91000003 cycles: 118657198 heartbeat IPC: 0.605269 cumulative IPC: 0.464026 (Simulation time: 2 hr 37 min 12 sec) 
Heartbeat CPU 0 instructions: 92000000 cycles: 120389978 heartbeat IPC: 0.577106 cumulative IPC: 0.466201 (Simulation time: 2 hr 39 min 2 sec) 
Heartbeat CPU 0 instructions: 93000000 cycles: 122132960 heartbeat IPC: 0.573729 cumulative IPC: 0.468242 (Simulation time: 2 hr 40 min 51 sec) 
Heartbeat CPU 0 instructions: 94000003 cycles: 123878689 heartbeat IPC: 0.572828 cumulative IPC: 0.470193 (Simulation time: 2 hr 42 min 43 sec) 
Heartbeat CPU 0 instructions: 95000000 cycles: 125582138 heartbeat IPC: 0.587043 cumulative IPC: 0.472282 (Simulation time: 2 hr 44 min 32 sec) 
Heartbeat CPU 0 instructions: 96000000 cycles: 127256586 heartbeat IPC: 0.597212 cumulative IPC: 0.474439 (Simulation time: 2 hr 46 min 17 sec) 
Heartbeat CPU 0 instructions: 97000001 cycles: 128996102 heartbeat IPC: 0.574873 cumulative IPC: 0.476209 (Simulation time: 2 hr 47 min 53 sec) 
Heartbeat CPU 0 instructions: 98000000 cycles: 130740794 heartbeat IPC: 0.573166 cumulative IPC: 0.477894 (Simulation time: 2 hr 49 min 36 sec) 
Heartbeat CPU 0 instructions: 99000001 cycles: 132483100 heartbeat IPC: 0.573953 cumulative IPC: 0.479531 (Simulation time: 2 hr 51 min 12 sec) 
Heartbeat CPU 0 instructions: 100000000 cycles: 134156177 heartbeat IPC: 0.597701 cumulative IPC: 0.481435 (Simulation time: 2 hr 52 min 49 sec) 
Heartbeat CPU 0 instructions: 101000000 cycles: 135860520 heartbeat IPC: 0.586736 cumulative IPC: 0.483135 (Simulation time: 2 hr 54 min 24 sec) 
Heartbeat CPU 0 instructions: 102000002 cycles: 139887590 heartbeat IPC: 0.24832 cumulative IPC: 0.474506 (Simulation time: 2 hr 56 min 11 sec) 
Heartbeat CPU 0 instructions: 103000000 cycles: 145264387 heartbeat IPC: 0.185984 cumulative IPC: 0.461012 (Simulation time: 2 hr 57 min 58 sec) 
Heartbeat CPU 0 instructions: 104000000 cycles: 146974595 heartbeat IPC: 0.584724 cumulative IPC: 0.462826 (Simulation time: 2 hr 59 min 31 sec) 
Heartbeat CPU 0 instructions: 105000000 cycles: 148641582 heartbeat IPC: 0.599885 cumulative IPC: 0.464756 (Simulation time: 3 hr 0 min 59 sec) 
Heartbeat CPU 0 instructions: 106000002 cycles: 150379415 heartbeat IPC: 0.57543 cumulative IPC: 0.466358 (Simulation time: 3 hr 2 min 28 sec) 
Heartbeat CPU 0 instructions: 107000001 cycles: 152123897 heartbeat IPC: 0.573236 cumulative IPC: 0.467889 (Simulation time: 3 hr 3 min 46 sec) 
Heartbeat CPU 0 instructions: 108000000 cycles: 153864308 heartbeat IPC: 0.574576 cumulative IPC: 0.469391 (Simulation time: 3 hr 5 min 1 sec) 
Heartbeat CPU 0 instructions: 109000001 cycles: 155541356 heartbeat IPC: 0.596286 cumulative IPC: 0.47109 (Simulation time: 3 hr 6 min 14 sec) 
Heartbeat CPU 0 instructions: 110000003 cycles: 157238751 heartbeat IPC: 0.589139 cumulative IPC: 0.472669 (Simulation time: 3 hr 7 min 26 sec) 
Heartbeat CPU 0 instructions: 111000002 cycles: 158982137 heartbeat IPC: 0.573596 cumulative IPC: 0.474036 (Simulation time: 3 hr 8 min 37 sec) 
Heartbeat CPU 0 instructions: 112000000 cycles: 160726046 heartbeat IPC: 0.573423 cumulative IPC: 0.475365 (Simulation time: 3 hr 9 min 47 sec) 
Heartbeat CPU 0 instructions: 113000002 cycles: 162457788 heartbeat IPC: 0.577454 cumulative IPC: 0.476703 (Simulation time: 3 hr 11 min 1 sec) 
Heartbeat CPU 0 instructions: 114000000 cycles: 164107415 heartbeat IPC: 0.606196 cumulative IPC: 0.478299 (Simulation time: 3 hr 12 min 9 sec) 
Heartbeat CPU 0 instructions: 115000002 cycles: 166920548 heartbeat IPC: 0.355476 cumulative IPC: 0.47577 (Simulation time: 3 hr 13 min 17 sec) 
Heartbeat CPU 0 instructions: 116000000 cycles: 173482253 heartbeat IPC: 0.152399 cumulative IPC: 0.460951 (Simulation time: 3 hr 14 min 28 sec) 
Heartbeat CPU 0 instructions: 117000000 cycles: 175235826 heartbeat IPC: 0.570264 cumulative IPC: 0.462274 (Simulation time: 3 hr 15 min 27 sec) 
Heartbeat CPU 0 instructions: 118000002 cycles: 176920035 heartbeat IPC: 0.593752 cumulative IPC: 0.463784 (Simulation time: 3 hr 16 min 23 sec) 
Heartbeat CPU 0 instructions: 119000003 cycles: 178616567 heartbeat IPC: 0.589438 cumulative IPC: 0.465221 (Simulation time: 3 hr 17 min 25 sec) 
Heartbeat CPU 0 instructions: 120000000 cycles: 180362693 heartbeat IPC: 0.572695 cumulative IPC: 0.466472 (Simulation time: 3 hr 18 min 23 sec) 
Heartbeat CPU 0 instructions: 121000001 cycles: 182109687 heartbeat IPC: 0.572412 cumulative IPC: 0.467691 (Simulation time: 3 hr 19 min 21 sec) 
Heartbeat CPU 0 instructions: 122000003 cycles: 183844551 heartbeat IPC: 0.576415 cumulative IPC: 0.468919 (Simulation time: 3 hr 20 min 22 sec) 
Heartbeat CPU 0 instructions: 123000000 cycles: 185503942 heartbeat IPC: 0.602629 cumulative IPC: 0.470349 (Simulation time: 3 hr 21 min 21 sec) 
Heartbeat CPU 0 instructions: 124000000 cycles: 187232949 heartbeat IPC: 0.578367 cumulative IPC: 0.471539 (Simulation time: 3 hr 22 min 16 sec) 
Heartbeat CPU 0 instructions: 125000002 cycles: 188978794 heartbeat IPC: 0.57279 cumulative IPC: 0.472653 (Simulation time: 3 hr 23 min 16 sec) 
Heartbeat CPU 0 instructions: 126000000 cycles: 190724150 heartbeat IPC: 0.572948 cumulative IPC: 0.473744 (Simulation time: 3 hr 24 min 8 sec) 
Heartbeat CPU 0 instructions: 127000001 cycles: 192433543 heartbeat IPC: 0.585004 cumulative IPC: 0.474917 (Simulation time: 3 hr 24 min 52 sec) 
Heartbeat CPU 0 instructions: 128000000 cycles: 194107693 heartbeat IPC: 0.597317 cumulative IPC: 0.476168 (Simulation time: 3 hr 25 min 36 sec) 
Heartbeat CPU 0 instructions: 129000002 cycles: 201783503 heartbeat IPC: 0.13028 cumulative IPC: 0.460686 (Simulation time: 3 hr 26 min 28 sec) 
Heartbeat CPU 0 instructions: 130000001 cycles: 203527199 heartbeat IPC: 0.573494 cumulative IPC: 0.461821 (Simulation time: 3 hr 27 min 10 sec) 
Heartbeat CPU 0 instructions: 131000002 cycles: 205265548 heartbeat IPC: 0.575259 cumulative IPC: 0.462948 (Simulation time: 3 hr 27 min 52 sec) 
Heartbeat CPU 0 instructions: 132000000 cycles: 206926546 heartbeat IPC: 0.602046 cumulative IPC: 0.464256 (Simulation time: 3 hr 28 min 33 sec) 
Heartbeat CPU 0 instructions: 133000000 cycles: 208650316 heartbeat IPC: 0.580124 cumulative IPC: 0.465376 (Simulation time: 3 hr 29 min 9 sec) 
Heartbeat CPU 0 instructions: 134000000 cycles: 210395280 heartbeat IPC: 0.573078 cumulative IPC: 0.46642 (Simulation time: 3 hr 29 min 45 sec) 
Heartbeat CPU 0 instructions: 135000003 cycles: 212141665 heartbeat IPC: 0.572613 cumulative IPC: 0.46744 (Simulation time: 3 hr 30 min 22 sec) 
Heartbeat CPU 0 instructions: 136000000 cycles: 213853258 heartbeat IPC: 0.584249 cumulative IPC: 0.468529 (Simulation time: 3 hr 30 min 57 sec) 
Heartbeat CPU 0 instructions: 137000001 cycles: 215522477 heartbeat IPC: 0.599083 cumulative IPC: 0.469705 (Simulation time: 3 hr 31 min 30 sec) 
Heartbeat CPU 0 instructions: 138000003 cycles: 217263165 heartbeat IPC: 0.574487 cumulative IPC: 0.470681 (Simulation time: 3 hr 32 min 3 sec) 
Heartbeat CPU 0 instructions: 139000000 cycles: 219008934 heartbeat IPC: 0.572812 cumulative IPC: 0.471626 (Simulation time: 3 hr 32 min 32 sec) 
Heartbeat CPU 0 instructions: 140000000 cycles: 220751778 heartbeat IPC: 0.573775 cumulative IPC: 0.472561 (Simulation time: 3 hr 33 min 1 sec) 
Heartbeat CPU 0 instructions: 141000002 cycles: 222432057 heartbeat IPC: 0.59514 cumulative IPC: 0.473633 (Simulation time: 3 hr 33 min 30 sec) 
Heartbeat CPU 0 instructions: 142000000 cycles: 229630630 heartbeat IPC: 0.138916 cumulative IPC: 0.461545 (Simulation time: 3 hr 34 min 4 sec) 
Heartbeat CPU 0 instructions: 143000000 cycles: 231376997 heartbeat IPC: 0.572617 cumulative IPC: 0.462509 (Simulation time: 3 hr 34 min 31 sec) 
Heartbeat CPU 0 instructions: 144000000 cycles: 233123968 heartbeat IPC: 0.572419 cumulative IPC: 0.463456 (Simulation time: 3 hr 34 min 57 sec) 
Heartbeat CPU 0 instructions: 145000002 cycles: 234841760 heartbeat IPC: 0.582144 cumulative IPC: 0.464453 (Simulation time: 3 hr 35 min 21 sec) 
Heartbeat CPU 0 instructions: 146000003 cycles: 236507787 heartbeat IPC: 0.600231 cumulative IPC: 0.46555 (Simulation time: 3 hr 35 min 43 sec) 
Heartbeat CPU 0 instructions: 147000001 cycles: 238248341 heartbeat IPC: 0.574529 cumulative IPC: 0.466462 (Simulation time: 3 hr 36 min 2 sec) 
Heartbeat CPU 0 instructions: 148000000 cycles: 240035137 heartbeat IPC: 0.55966 cumulative IPC: 0.467256 (Simulation time: 3 hr 36 min 19 sec) 
Heartbeat CPU 0 instructions: 149000001 cycles: 241781424 heartbeat IPC: 0.572644 cumulative IPC: 0.468126 (Simulation time: 3 hr 36 min 34 sec) 
Heartbeat CPU 0 instructions: 150000000 cycles: 243465259 heartbeat IPC: 0.593882 cumulative IPC: 0.46912 (Simulation time: 3 hr 36 min 49 sec) 
Finished CPU 0 instructions: 100000000 cycles: 213165243 cummulative IPC: 0.46912 (Simulation time: 3 hr 36 min 49 sec) 

ChampSim completed all CPUs

Region of Interest Statistics

CPU 0 cummulative IPC: 0.46912 instructions: 100000000 cycles: 213165243
LLC TOTAL     ACCESS:    1111610  HIT:     253045  MISS:     858565
LLC LOAD      ACCESS:      23984  HIT:       1333  MISS:      22651
LLC RFO       ACCESS:     245174  HIT:        408  MISS:     244766
LLC PREFETCH  ACCESS:     595891  HIT:       5065  MISS:     590826
LLC WRITEBACK ACCESS:     246561  HIT:     246239  MISS:        322
