
*** ChampSim Multicore Out-of-Order Simulator ***

Warmup Instructions: 50000000
Simulation Instructions: 100000000
Configuration: 2
Number of CPUs: 1
LLC sets: 2048
LLC ways: 16
Off-chip DRAM Channels: 1 Width: 64-bit Data Rate: 1600 MT/s

CPU 0 runs /datasets/cs240c-wi22-a00-public/data/Assignment2-gz/lbm_1004B.trace.gz
CPU 0 L1D next line prefetcher
CPU 0 L2C IP-based stride prefetcher
Initialize LRU replacement state
Heartbeat CPU 0 instructions: 1000002 cycles: 391414 heartbeat IPC: 2.55484 cumulative IPC: 2.55484 (Simulation time: 0 hr 1 min 13 sec) 
Heartbeat CPU 0 instructions: 2000001 cycles: 782838 heartbeat IPC: 2.55477 cumulative IPC: 2.55481 (Simulation time: 0 hr 2 min 28 sec) 
Heartbeat CPU 0 instructions: 3000001 cycles: 1174187 heartbeat IPC: 2.55526 cumulative IPC: 2.55496 (Simulation time: 0 hr 3 min 49 sec) 
Heartbeat CPU 0 instructions: 4000000 cycles: 1570381 heartbeat IPC: 2.52401 cumulative IPC: 2.54715 (Simulation time: 0 hr 5 min 11 sec) 
Heartbeat CPU 0 instructions: 5000002 cycles: 1961799 heartbeat IPC: 2.55482 cumulative IPC: 2.54868 (Simulation time: 0 hr 6 min 27 sec) 
Heartbeat CPU 0 instructions: 6000002 cycles: 2353167 heartbeat IPC: 2.55514 cumulative IPC: 2.54976 (Simulation time: 0 hr 7 min 41 sec) 
Heartbeat CPU 0 instructions: 7000003 cycles: 2749275 heartbeat IPC: 2.52457 cumulative IPC: 2.54613 (Simulation time: 0 hr 8 min 47 sec) 
Heartbeat CPU 0 instructions: 8000000 cycles: 3140640 heartbeat IPC: 2.55515 cumulative IPC: 2.54725 (Simulation time: 0 hr 9 min 53 sec) 
Heartbeat CPU 0 instructions: 9000003 cycles: 3532087 heartbeat IPC: 2.55463 cumulative IPC: 2.54807 (Simulation time: 0 hr 11 min 16 sec) 
Heartbeat CPU 0 instructions: 10000000 cycles: 3923461 heartbeat IPC: 2.55509 cumulative IPC: 2.54877 (Simulation time: 0 hr 12 min 42 sec) 
Heartbeat CPU 0 instructions: 11000000 cycles: 4319701 heartbeat IPC: 2.52372 cumulative IPC: 2.54647 (Simulation time: 0 hr 14 min 10 sec) 
Heartbeat CPU 0 instructions: 12000000 cycles: 4711034 heartbeat IPC: 2.55537 cumulative IPC: 2.54721 (Simulation time: 0 hr 15 min 38 sec) 
Heartbeat CPU 0 instructions: 13000002 cycles: 5102464 heartbeat IPC: 2.55474 cumulative IPC: 2.54779 (Simulation time: 0 hr 17 min 16 sec) 
Heartbeat CPU 0 instructions: 14000003 cycles: 5498640 heartbeat IPC: 2.52413 cumulative IPC: 2.54608 (Simulation time: 0 hr 18 min 44 sec) 
Heartbeat CPU 0 instructions: 15000003 cycles: 5890073 heartbeat IPC: 2.55472 cumulative IPC: 2.54666 (Simulation time: 0 hr 20 min 12 sec) 
Heartbeat CPU 0 instructions: 16000000 cycles: 6281475 heartbeat IPC: 2.55491 cumulative IPC: 2.54717 (Simulation time: 0 hr 21 min 44 sec) 
Heartbeat CPU 0 instructions: 17000000 cycles: 6677640 heartbeat IPC: 2.5242 cumulative IPC: 2.54581 (Simulation time: 0 hr 23 min 13 sec) 
Heartbeat CPU 0 instructions: 18000000 cycles: 7069023 heartbeat IPC: 2.55504 cumulative IPC: 2.54632 (Simulation time: 0 hr 24 min 50 sec) 
Heartbeat CPU 0 instructions: 19000003 cycles: 7460385 heartbeat IPC: 2.55519 cumulative IPC: 2.54679 (Simulation time: 0 hr 26 min 26 sec) 
Heartbeat CPU 0 instructions: 20000000 cycles: 7851797 heartbeat IPC: 2.55485 cumulative IPC: 2.54719 (Simulation time: 0 hr 28 min 8 sec) 
Heartbeat CPU 0 instructions: 21000003 cycles: 8247969 heartbeat IPC: 2.52416 cumulative IPC: 2.54608 (Simulation time: 0 hr 29 min 53 sec) 
Heartbeat CPU 0 instructions: 22000002 cycles: 8639432 heartbeat IPC: 2.55452 cumulative IPC: 2.54646 (Simulation time: 0 hr 31 min 40 sec) 
Heartbeat CPU 0 instructions: 23000001 cycles: 9030774 heartbeat IPC: 2.55531 cumulative IPC: 2.54685 (Simulation time: 0 hr 33 min 11 sec) 
Heartbeat CPU 0 instructions: 24000000 cycles: 9426991 heartbeat IPC: 2.52387 cumulative IPC: 2.54588 (Simulation time: 0 hr 34 min 44 sec) 
Heartbeat CPU 0 instructions: 25000003 cycles: 9818396 heartbeat IPC: 2.55491 cumulative IPC: 2.54624 (Simulation time: 0 hr 36 min 15 sec) 
Heartbeat CPU 0 instructions: 26000002 cycles: 10209787 heartbeat IPC: 2.55499 cumulative IPC: 2.54658 (Simulation time: 0 hr 37 min 45 sec) 
Heartbeat CPU 0 instructions: 27000001 cycles: 10601153 heartbeat IPC: 2.55515 cumulative IPC: 2.54689 (Simulation time: 0 hr 39 min 21 sec) 
Heartbeat CPU 0 instructions: 28000000 cycles: 10997338 heartbeat IPC: 2.52407 cumulative IPC: 2.54607 (Simulation time: 0 hr 41 min 17 sec) 
Heartbeat CPU 0 instructions: 29000002 cycles: 11388739 heartbeat IPC: 2.55493 cumulative IPC: 2.54638 (Simulation time: 0 hr 42 min 54 sec) 
Heartbeat CPU 0 instructions: 30000003 cycles: 11780132 heartbeat IPC: 2.55498 cumulative IPC: 2.54666 (Simulation time: 0 hr 44 min 33 sec) 
Heartbeat CPU 0 instructions: 31000003 cycles: 12176358 heartbeat IPC: 2.52381 cumulative IPC: 2.54592 (Simulation time: 0 hr 46 min 3 sec) 
Heartbeat CPU 0 instructions: 32000000 cycles: 12567741 heartbeat IPC: 2.55503 cumulative IPC: 2.5462 (Simulation time: 0 hr 47 min 36 sec) 
Heartbeat CPU 0 instructions: 33000003 cycles: 12959178 heartbeat IPC: 2.5547 cumulative IPC: 2.54646 (Simulation time: 0 hr 49 min 6 sec) 
Heartbeat CPU 0 instructions: 34000002 cycles: 13355293 heartbeat IPC: 2.52452 cumulative IPC: 2.54581 (Simulation time: 0 hr 50 min 44 sec) 
Heartbeat CPU 0 instructions: 35000003 cycles: 13746712 heartbeat IPC: 2.55481 cumulative IPC: 2.54606 (Simulation time: 0 hr 52 min 16 sec) 
Heartbeat CPU 0 instructions: 36000000 cycles: 14138118 heartbeat IPC: 2.55488 cumulative IPC: 2.54631 (Simulation time: 0 hr 54 min 0 sec) 
Heartbeat CPU 0 instructions: 37000002 cycles: 14529528 heartbeat IPC: 2.55487 cumulative IPC: 2.54654 (Simulation time: 0 hr 55 min 48 sec) 
Heartbeat CPU 0 instructions: 38000000 cycles: 14925723 heartbeat IPC: 2.524 cumulative IPC: 2.54594 (Simulation time: 0 hr 57 min 28 sec) 
Heartbeat CPU 0 instructions: 39000003 cycles: 15317046 heartbeat IPC: 2.55544 cumulative IPC: 2.54618 (Simulation time: 0 hr 59 min 0 sec) 
Heartbeat CPU 0 instructions: 40000000 cycles: 15708442 heartbeat IPC: 2.55495 cumulative IPC: 2.5464 (Simulation time: 1 hr 0 min 36 sec) 
Heartbeat CPU 0 instructions: 41000002 cycles: 16104647 heartbeat IPC: 2.52395 cumulative IPC: 2.54585 (Simulation time: 1 hr 2 min 16 sec) 
Heartbeat CPU 0 instructions: 42000003 cycles: 16496084 heartbeat IPC: 2.55469 cumulative IPC: 2.54606 (Simulation time: 1 hr 3 min 56 sec) 
Heartbeat CPU 0 instructions: 43000000 cycles: 16887462 heartbeat IPC: 2.55507 cumulative IPC: 2.54627 (Simulation time: 1 hr 5 min 39 sec) 
Heartbeat CPU 0 instructions: 44000000 cycles: 17283635 heartbeat IPC: 2.52415 cumulative IPC: 2.54576 (Simulation time: 1 hr 7 min 21 sec) 
Heartbeat CPU 0 instructions: 45000003 cycles: 17675033 heartbeat IPC: 2.55495 cumulative IPC: 2.54596 (Simulation time: 1 hr 9 min 6 sec) 
Heartbeat CPU 0 instructions: 46000003 cycles: 18066387 heartbeat IPC: 2.55523 cumulative IPC: 2.54616 (Simulation time: 1 hr 10 min 48 sec) 
Heartbeat CPU 0 instructions: 47000002 cycles: 18457786 heartbeat IPC: 2.55493 cumulative IPC: 2.54635 (Simulation time: 1 hr 12 min 27 sec) 
Heartbeat CPU 0 instructions: 48000000 cycles: 18853960 heartbeat IPC: 2.52414 cumulative IPC: 2.54588 (Simulation time: 1 hr 14 min 4 sec) 
Heartbeat CPU 0 instructions: 49000000 cycles: 19245386 heartbeat IPC: 2.55476 cumulative IPC: 2.54606 (Simulation time: 1 hr 15 min 47 sec) 
Heartbeat CPU 0 instructions: 50000003 cycles: 19636720 heartbeat IPC: 2.55537 cumulative IPC: 2.54625 (Simulation time: 1 hr 17 min 29 sec) 

Warmup complete CPU 0 instructions: 50000003 cycles: 19636720 (Simulation time: 1 hr 17 min 29 sec) 

Heartbeat CPU 0 instructions: 51000001 cycles: 21270813 heartbeat IPC: 0.611959 cumulative IPC: 0.611959 (Simulation time: 1 hr 19 min 25 sec) 
Heartbeat CPU 0 instructions: 52000000 cycles: 22860499 heartbeat IPC: 0.629054 cumulative IPC: 0.620389 (Simulation time: 1 hr 21 min 32 sec) 
Heartbeat CPU 0 instructions: 53000002 cycles: 24444415 heartbeat IPC: 0.631348 cumulative IPC: 0.623999 (Simulation time: 1 hr 23 min 35 sec) 
Heartbeat CPU 0 instructions: 54000002 cycles: 26063917 heartbeat IPC: 0.617474 cumulative IPC: 0.622355 (Simulation time: 1 hr 25 min 42 sec) 
Heartbeat CPU 0 instructions: 55000001 cycles: 27704455 heartbeat IPC: 0.609556 cumulative IPC: 0.619752 (Simulation time: 1 hr 27 min 43 sec) 
Heartbeat CPU 0 instructions: 56000000 cycles: 29314910 heartbeat IPC: 0.620942 cumulative IPC: 0.61995 (Simulation time: 1 hr 29 min 40 sec) 
Heartbeat CPU 0 instructions: 57000003 cycles: 30903237 heartbeat IPC: 0.629595 cumulative IPC: 0.62131 (Simulation time: 1 hr 31 min 42 sec) 
Heartbeat CPU 0 instructions: 58000003 cycles: 32552492 heartbeat IPC: 0.606334 cumulative IPC: 0.619398 (Simulation time: 1 hr 33 min 51 sec) 
Heartbeat CPU 0 instructions: 59000002 cycles: 34141226 heartbeat IPC: 0.629431 cumulative IPC: 0.620497 (Simulation time: 1 hr 35 min 50 sec) 
Heartbeat CPU 0 instructions: 60000000 cycles: 35743522 heartbeat IPC: 0.624103 cumulative IPC: 0.620856 (Simulation time: 1 hr 37 min 56 sec) 
Heartbeat CPU 0 instructions: 61000003 cycles: 37391513 heartbeat IPC: 0.606801 cumulative IPC: 0.619551 (Simulation time: 1 hr 39 min 59 sec) 
Heartbeat CPU 0 instructions: 62000001 cycles: 38987358 heartbeat IPC: 0.626626 cumulative IPC: 0.620134 (Simulation time: 1 hr 42 min 6 sec) 
Heartbeat CPU 0 instructions: 63000001 cycles: 40562998 heartbeat IPC: 0.634663 cumulative IPC: 0.621228 (Simulation time: 1 hr 44 min 5 sec) 
Heartbeat CPU 0 instructions: 64000000 cycles: 42150019 heartbeat IPC: 0.630111 cumulative IPC: 0.621855 (Simulation time: 1 hr 46 min 4 sec) 
Heartbeat CPU 0 instructions: 65000000 cycles: 43804831 heartbeat IPC: 0.604298 cumulative IPC: 0.620652 (Simulation time: 1 hr 47 min 58 sec) 
Heartbeat CPU 0 instructions: 66000000 cycles: 45382760 heartbeat IPC: 0.633742 cumulative IPC: 0.621455 (Simulation time: 1 hr 50 min 3 sec) 
Heartbeat CPU 0 instructions: 67000000 cycles: 46974562 heartbeat IPC: 0.628219 cumulative IPC: 0.621849 (Simulation time: 1 hr 52 min 1 sec) 
Heartbeat CPU 0 instructions: 68000000 cycles: 48606380 heartbeat IPC: 0.612813 cumulative IPC: 0.62134 (Simulation time: 1 hr 54 min 5 sec) 
Heartbeat CPU 0 instructions: 69000000 cycles: 50188142 heartbeat IPC: 0.632206 cumulative IPC: 0.621902 (Simulation time: 1 hr 56 min 11 sec) 
Heartbeat CPU 0 instructions: 70000000 cycles: 51772586 heartbeat IPC: 0.631136 cumulative IPC: 0.622357 (Simulation time: 1 hr 58 min 8 sec) 
Heartbeat CPU 0 instructions: 71000002 cycles: 53410054 heartbeat IPC: 0.6107 cumulative IPC: 0.621792 (Simulation time: 2 hr 0 min 13 sec) 
Heartbeat CPU 0 instructions: 72000000 cycles: 55919298 heartbeat IPC: 0.398526 cumulative IPC: 0.606352 (Simulation time: 2 hr 2 min 55 sec) 
Heartbeat CPU 0 instructions: 73000001 cycles: 59472808 heartbeat IPC: 0.281412 cumulative IPC: 0.577366 (Simulation time: 2 hr 6 min 16 sec) 
Heartbeat CPU 0 instructions: 74000002 cycles: 66364988 heartbeat IPC: 0.145092 cumulative IPC: 0.513608 (Simulation time: 2 hr 11 min 12 sec) 
Heartbeat CPU 0 instructions: 75000003 cycles: 68865860 heartbeat IPC: 0.399861 cumulative IPC: 0.507829 (Simulation time: 2 hr 13 min 40 sec) 
Heartbeat CPU 0 instructions: 76000000 cycles: 71038422 heartbeat IPC: 0.460285 cumulative IPC: 0.50582 (Simulation time: 2 hr 15 min 35 sec) 
Heartbeat CPU 0 instructions: 77000000 cycles: 72639223 heartbeat IPC: 0.624687 cumulative IPC: 0.50941 (Simulation time: 2 hr 17 min 10 sec) 
Heartbeat CPU 0 instructions: 78000002 cycles: 74216242 heartbeat IPC: 0.634109 cumulative IPC: 0.513013 (Simulation time: 2 hr 18 min 44 sec) 
Heartbeat CPU 0 instructions: 79000000 cycles: 75853426 heartbeat IPC: 0.610804 cumulative IPC: 0.515861 (Simulation time: 2 hr 20 min 23 sec) 
Heartbeat CPU 0 instructions: 80000000 cycles: 77458697 heartbeat IPC: 0.622948 cumulative IPC: 0.518834 (Simulation time: 2 hr 22 min 11 sec) 
Heartbeat CPU 0 instructions: 81000001 cycles: 79055732 heartbeat IPC: 0.626161 cumulative IPC: 0.521719 (Simulation time: 2 hr 24 min 3 sec) 
Heartbeat CPU 0 instructions: 82000002 cycles: 80648821 heartbeat IPC: 0.627712 cumulative IPC: 0.524486 (Simulation time: 2 hr 25 min 59 sec) 
Heartbeat CPU 0 instructions: 83000003 cycles: 82297819 heartbeat IPC: 0.606429 cumulative IPC: 0.526643 (Simulation time: 2 hr 27 min 52 sec) 
Heartbeat CPU 0 instructions: 84000000 cycles: 83868878 heartbeat IPC: 0.636511 cumulative IPC: 0.52933 (Simulation time: 2 hr 29 min 47 sec) 
Heartbeat CPU 0 instructions: 85000000 cycles: 85461883 heartbeat IPC: 0.627744 cumulative IPC: 0.531712 (Simulation time: 2 hr 31 min 34 sec) 
Heartbeat CPU 0 instructions: 86000000 cycles: 87133699 heartbeat IPC: 0.598152 cumulative IPC: 0.533357 (Simulation time: 2 hr 33 min 35 sec) 
Heartbeat CPU 0 instructions: 87000002 cycles: 88715548 heartbeat IPC: 0.632173 cumulative IPC: 0.53562 (Simulation time: 2 hr 35 min 35 sec) 
Heartbeat CPU 0 instructions: 88000000 cycles: 90302401 heartbeat IPC: 0.630177 cumulative IPC: 0.537743 (Simulation time: 2 hr 37 min 33 sec) 
Heartbeat CPU 0 instructions: 89000003 cycles: 91885915 heartbeat IPC: 0.631509 cumulative IPC: 0.539798 (Simulation time: 2 hr 39 min 31 sec) 
Heartbeat CPU 0 instructions: 90000002 cycles: 93518697 heartbeat IPC: 0.612451 cumulative IPC: 0.541404 (Simulation time: 2 hr 41 min 39 sec) 
Heartbeat CPU 0 instructions: 91000001 cycles: 95115887 heartbeat IPC: 0.626099 cumulative IPC: 0.543196 (Simulation time: 2 hr 43 min 37 sec) 
Heartbeat CPU 0 instructions: 92000000 cycles: 96708347 heartbeat IPC: 0.627959 cumulative IPC: 0.544948 (Simulation time: 2 hr 45 min 34 sec) 
Heartbeat CPU 0 instructions: 93000003 cycles: 98368945 heartbeat IPC: 0.602194 cumulative IPC: 0.546155 (Simulation time: 2 hr 47 min 30 sec) 
Heartbeat CPU 0 instructions: 94000003 cycles: 99953574 heartbeat IPC: 0.631063 cumulative IPC: 0.54783 (Simulation time: 2 hr 49 min 24 sec) 
Heartbeat CPU 0 instructions: 95000000 cycles: 101555691 heartbeat IPC: 0.624172 cumulative IPC: 0.549323 (Simulation time: 2 hr 51 min 14 sec) 
Heartbeat CPU 0 instructions: 96000000 cycles: 103211439 heartbeat IPC: 0.603957 cumulative IPC: 0.550406 (Simulation time: 2 hr 53 min 7 sec) 
Heartbeat CPU 0 instructions: 97000002 cycles: 104820667 heartbeat IPC: 0.621417 cumulative IPC: 0.551747 (Simulation time: 2 hr 54 min 54 sec) 
Heartbeat CPU 0 instructions: 98000001 cycles: 106381803 heartbeat IPC: 0.640559 cumulative IPC: 0.553345 (Simulation time: 2 hr 56 min 52 sec) 
Heartbeat CPU 0 instructions: 99000000 cycles: 107972121 heartbeat IPC: 0.628804 cumulative IPC: 0.554704 (Simulation time: 2 hr 58 min 41 sec) 
Heartbeat CPU 0 instructions: 100000000 cycles: 109608302 heartbeat IPC: 0.611179 cumulative IPC: 0.555731 (Simulation time: 3 hr 0 min 30 sec) 
Heartbeat CPU 0 instructions: 101000000 cycles: 111188725 heartbeat IPC: 0.632742 cumulative IPC: 0.55706 (Simulation time: 3 hr 1 min 50 sec) 
Heartbeat CPU 0 instructions: 102000000 cycles: 112783543 heartbeat IPC: 0.627031 cumulative IPC: 0.558258 (Simulation time: 3 hr 3 min 3 sec) 
Heartbeat CPU 0 instructions: 103000001 cycles: 114478381 heartbeat IPC: 0.590028 cumulative IPC: 0.558826 (Simulation time: 3 hr 4 min 22 sec) 
Heartbeat CPU 0 instructions: 104000000 cycles: 116090085 heartbeat IPC: 0.620461 cumulative IPC: 0.559856 (Simulation time: 3 hr 5 min 48 sec) 
Heartbeat CPU 0 instructions: 105000001 cycles: 117681099 heartbeat IPC: 0.628531 cumulative IPC: 0.56097 (Simulation time: 3 hr 7 min 8 sec) 
Heartbeat CPU 0 instructions: 106000000 cycles: 119254724 heartbeat IPC: 0.635475 cumulative IPC: 0.562147 (Simulation time: 3 hr 8 min 24 sec) 
Heartbeat CPU 0 instructions: 107000000 cycles: 120938151 heartbeat IPC: 0.594026 cumulative IPC: 0.562677 (Simulation time: 3 hr 9 min 40 sec) 
Heartbeat CPU 0 instructions: 108000000 cycles: 122569714 heartbeat IPC: 0.612909 cumulative IPC: 0.563473 (Simulation time: 3 hr 10 min 46 sec) 
Heartbeat CPU 0 instructions: 109000003 cycles: 124147264 heartbeat IPC: 0.633896 cumulative IPC: 0.564536 (Simulation time: 3 hr 11 min 48 sec) 
Heartbeat CPU 0 instructions: 110000001 cycles: 125804699 heartbeat IPC: 0.603341 cumulative IPC: 0.565142 (Simulation time: 3 hr 12 min 57 sec) 
Heartbeat CPU 0 instructions: 111000003 cycles: 127495806 heartbeat IPC: 0.59133 cumulative IPC: 0.565553 (Simulation time: 3 hr 14 min 6 sec) 
Heartbeat CPU 0 instructions: 112000000 cycles: 129088298 heartbeat IPC: 0.627945 cumulative IPC: 0.56646 (Simulation time: 3 hr 15 min 13 sec) 
Heartbeat CPU 0 instructions: 113000001 cycles: 130742876 heartbeat IPC: 0.604384 cumulative IPC: 0.567025 (Simulation time: 3 hr 16 min 21 sec) 
Heartbeat CPU 0 instructions: 114000001 cycles: 132446467 heartbeat IPC: 0.586995 cumulative IPC: 0.567327 (Simulation time: 3 hr 17 min 31 sec) 
Heartbeat CPU 0 instructions: 115000000 cycles: 134041870 heartbeat IPC: 0.6268 cumulative IPC: 0.568156 (Simulation time: 3 hr 18 min 34 sec) 
Heartbeat CPU 0 instructions: 116000000 cycles: 135687605 heartbeat IPC: 0.607631 cumulative IPC: 0.568716 (Simulation time: 3 hr 19 min 41 sec) 
Heartbeat CPU 0 instructions: 117000000 cycles: 137427822 heartbeat IPC: 0.574641 cumulative IPC: 0.568804 (Simulation time: 3 hr 20 min 49 sec) 
Heartbeat CPU 0 instructions: 118000003 cycles: 139033630 heartbeat IPC: 0.622741 cumulative IPC: 0.569529 (Simulation time: 3 hr 21 min 51 sec) 
Heartbeat CPU 0 instructions: 119000002 cycles: 140618620 heartbeat IPC: 0.630918 cumulative IPC: 0.570333 (Simulation time: 3 hr 22 min 50 sec) 
Heartbeat CPU 0 instructions: 120000000 cycles: 142363389 heartbeat IPC: 0.573141 cumulative IPC: 0.570373 (Simulation time: 3 hr 23 min 52 sec) 
Heartbeat CPU 0 instructions: 121000002 cycles: 144077530 heartbeat IPC: 0.583384 cumulative IPC: 0.570552 (Simulation time: 3 hr 24 min 40 sec) 
Heartbeat CPU 0 instructions: 122000002 cycles: 145671527 heartbeat IPC: 0.627354 cumulative IPC: 0.571271 (Simulation time: 3 hr 25 min 33 sec) 
Heartbeat CPU 0 instructions: 123000002 cycles: 147343063 heartbeat IPC: 0.598252 cumulative IPC: 0.571624 (Simulation time: 3 hr 26 min 23 sec) 
Heartbeat CPU 0 instructions: 124000000 cycles: 149129767 heartbeat IPC: 0.559689 cumulative IPC: 0.571459 (Simulation time: 3 hr 27 min 11 sec) 
Heartbeat CPU 0 instructions: 125000000 cycles: 150727867 heartbeat IPC: 0.625743 cumulative IPC: 0.572121 (Simulation time: 3 hr 28 min 0 sec) 
Heartbeat CPU 0 instructions: 126000002 cycles: 152382146 heartbeat IPC: 0.604494 cumulative IPC: 0.572524 (Simulation time: 3 hr 28 min 48 sec) 
Heartbeat CPU 0 instructions: 127000000 cycles: 154239260 heartbeat IPC: 0.538469 cumulative IPC: 0.572055 (Simulation time: 3 hr 29 min 29 sec) 
Heartbeat CPU 0 instructions: 128000000 cycles: 155826383 heartbeat IPC: 0.630071 cumulative IPC: 0.572731 (Simulation time: 3 hr 30 min 7 sec) 
Heartbeat CPU 0 instructions: 129000000 cycles: 157482167 heartbeat IPC: 0.603944 cumulative IPC: 0.573106 (Simulation time: 3 hr 30 min 48 sec) 
Heartbeat CPU 0 instructions: 130000000 cycles: 159356186 heartbeat IPC: 0.533612 cumulative IPC: 0.572576 (Simulation time: 3 hr 31 min 22 sec) 
Heartbeat CPU 0 instructions: 131000000 cycles: 160960098 heartbeat IPC: 0.623476 cumulative IPC: 0.573154 (Simulation time: 3 hr 31 min 55 sec) 
Heartbeat CPU 0 instructions: 132000000 cycles: 162596665 heartbeat IPC: 0.611035 cumulative IPC: 0.573587 (Simulation time: 3 hr 32 min 30 sec) 
Heartbeat CPU 0 instructions: 133000001 cycles: 164523606 heartbeat IPC: 0.518958 cumulative IPC: 0.572861 (Simulation time: 3 hr 33 min 6 sec) 
Heartbeat CPU 0 instructions: 134000000 cycles: 166113645 heartbeat IPC: 0.628915 cumulative IPC: 0.573469 (Simulation time: 3 hr 33 min 34 sec) 
Heartbeat CPU 0 instructions: 135000003 cycles: 167765783 heartbeat IPC: 0.605278 cumulative IPC: 0.573824 (Simulation time: 3 hr 34 min 2 sec) 
Heartbeat CPU 0 instructions: 136000000 cycles: 169694864 heartbeat IPC: 0.51838 cumulative IPC: 0.573111 (Simulation time: 3 hr 34 min 30 sec) 
Heartbeat CPU 0 instructions: 137000000 cycles: 171289263 heartbeat IPC: 0.627196 cumulative IPC: 0.57368 (Simulation time: 3 hr 34 min 55 sec) 
Heartbeat CPU 0 instructions: 138000003 cycles: 172903411 heartbeat IPC: 0.619524 cumulative IPC: 0.574163 (Simulation time: 3 hr 35 min 20 sec) 
Heartbeat CPU 0 instructions: 139000000 cycles: 174844852 heartbeat IPC: 0.51508 cumulative IPC: 0.573424 (Simulation time: 3 hr 35 min 46 sec) 
Heartbeat CPU 0 instructions: 140000000 cycles: 176450844 heartbeat IPC: 0.622668 cumulative IPC: 0.573928 (Simulation time: 3 hr 36 min 4 sec) 
Heartbeat CPU 0 instructions: 141000001 cycles: 178098334 heartbeat IPC: 0.606985 cumulative IPC: 0.574272 (Simulation time: 3 hr 36 min 21 sec) 
Heartbeat CPU 0 instructions: 142000003 cycles: 180030936 heartbeat IPC: 0.517438 cumulative IPC: 0.573587 (Simulation time: 3 hr 36 min 37 sec) 
Heartbeat CPU 0 instructions: 143000000 cycles: 181651900 heartbeat IPC: 0.616915 cumulative IPC: 0.57402 (Simulation time: 3 hr 36 min 52 sec) 
Heartbeat CPU 0 instructions: 144000000 cycles: 183301514 heartbeat IPC: 0.606202 cumulative IPC: 0.574345 (Simulation time: 3 hr 37 min 4 sec) 
Heartbeat CPU 0 instructions: 145000000 cycles: 185253318 heartbeat IPC: 0.512347 cumulative IPC: 0.573614 (Simulation time: 3 hr 37 min 15 sec) 
Heartbeat CPU 0 instructions: 146000003 cycles: 186869640 heartbeat IPC: 0.61869 cumulative IPC: 0.57405 (Simulation time: 3 hr 37 min 24 sec) 
Heartbeat CPU 0 instructions: 147000000 cycles: 188520255 heartbeat IPC: 0.605833 cumulative IPC: 0.57436 (Simulation time: 3 hr 37 min 33 sec) 
Heartbeat CPU 0 instructions: 148000000 cycles: 190502528 heartbeat IPC: 0.504471 cumulative IPC: 0.57355 (Simulation time: 3 hr 37 min 42 sec) 
Heartbeat CPU 0 instructions: 149000001 cycles: 192120352 heartbeat IPC: 0.618115 cumulative IPC: 0.573968 (Simulation time: 3 hr 37 min 51 sec) 
Heartbeat CPU 0 instructions: 150000000 cycles: 193762622 heartbeat IPC: 0.608913 cumulative IPC: 0.574297 (Simulation time: 3 hr 37 min 59 sec) 
Finished CPU 0 instructions: 100000003 cycles: 174125942 cummulative IPC: 0.574297 (Simulation time: 3 hr 37 min 59 sec) 

ChampSim completed all CPUs

Region of Interest Statistics

CPU 0 cummulative IPC: 0.574297 instructions: 100000003 cycles: 174125942
LLC TOTAL     ACCESS:    5989069  HIT:    2660603  MISS:    3328466
LLC LOAD      ACCESS:     441834  HIT:      23434  MISS:     418400
LLC RFO       ACCESS:    2551823  HIT:      55517  MISS:    2496306
LLC PREFETCH  ACCESS:     443293  HIT:      29652  MISS:     413641
LLC WRITEBACK ACCESS:    2552119  HIT:    2552000  MISS:        119
