
*** ChampSim Multicore Out-of-Order Simulator ***

Warmup Instructions: 50000000
Simulation Instructions: 100000000
Configuration: 2
Number of CPUs: 1
LLC sets: 2048
LLC ways: 16
Off-chip DRAM Channels: 1 Width: 64-bit Data Rate: 1600 MT/s

CPU 0 runs /datasets/cs240c-wi22-a00-public/data/Assignment2-gz/omnetpp_17B.trace.gz
CPU 0 L1D next line prefetcher
CPU 0 L2C IP-based stride prefetcher
Initialize LRU replacement state
Heartbeat CPU 0 instructions: 1000000 cycles: 559591 heartbeat IPC: 1.78702 cumulative IPC: 1.78702 (Simulation time: 0 hr 1 min 8 sec) 
Heartbeat CPU 0 instructions: 2000002 cycles: 1133982 heartbeat IPC: 1.74098 cumulative IPC: 1.7637 (Simulation time: 0 hr 2 min 7 sec) 
Heartbeat CPU 0 instructions: 3000001 cycles: 1769413 heartbeat IPC: 1.57373 cumulative IPC: 1.69548 (Simulation time: 0 hr 3 min 3 sec) 
Heartbeat CPU 0 instructions: 4000000 cycles: 2334727 heartbeat IPC: 1.76893 cumulative IPC: 1.71326 (Simulation time: 0 hr 4 min 14 sec) 
Heartbeat CPU 0 instructions: 5000002 cycles: 2894238 heartbeat IPC: 1.78728 cumulative IPC: 1.72757 (Simulation time: 0 hr 5 min 17 sec) 
Heartbeat CPU 0 instructions: 6000000 cycles: 3473151 heartbeat IPC: 1.72737 cumulative IPC: 1.72754 (Simulation time: 0 hr 6 min 17 sec) 
Heartbeat CPU 0 instructions: 7000000 cycles: 4038074 heartbeat IPC: 1.77015 cumulative IPC: 1.7335 (Simulation time: 0 hr 7 min 23 sec) 
Heartbeat CPU 0 instructions: 8000000 cycles: 4699808 heartbeat IPC: 1.51118 cumulative IPC: 1.7022 (Simulation time: 0 hr 8 min 22 sec) 
Heartbeat CPU 0 instructions: 9000000 cycles: 5361615 heartbeat IPC: 1.51101 cumulative IPC: 1.6786 (Simulation time: 0 hr 9 min 18 sec) 
Heartbeat CPU 0 instructions: 10000001 cycles: 6023185 heartbeat IPC: 1.51156 cumulative IPC: 1.66025 (Simulation time: 0 hr 10 min 12 sec) 
Heartbeat CPU 0 instructions: 11000001 cycles: 6684575 heartbeat IPC: 1.51197 cumulative IPC: 1.64558 (Simulation time: 0 hr 11 min 9 sec) 
Heartbeat CPU 0 instructions: 12000000 cycles: 7345351 heartbeat IPC: 1.51337 cumulative IPC: 1.63369 (Simulation time: 0 hr 12 min 10 sec) 
Heartbeat CPU 0 instructions: 13000001 cycles: 8004053 heartbeat IPC: 1.51814 cumulative IPC: 1.62418 (Simulation time: 0 hr 13 min 7 sec) 
Heartbeat CPU 0 instructions: 14000000 cycles: 8665342 heartbeat IPC: 1.5122 cumulative IPC: 1.61563 (Simulation time: 0 hr 14 min 14 sec) 
Heartbeat CPU 0 instructions: 15000000 cycles: 9327057 heartbeat IPC: 1.51122 cumulative IPC: 1.60822 (Simulation time: 0 hr 15 min 21 sec) 
Heartbeat CPU 0 instructions: 16000000 cycles: 9988968 heartbeat IPC: 1.51078 cumulative IPC: 1.60177 (Simulation time: 0 hr 16 min 27 sec) 
Heartbeat CPU 0 instructions: 17000000 cycles: 10654695 heartbeat IPC: 1.50212 cumulative IPC: 1.59554 (Simulation time: 0 hr 17 min 33 sec) 
Heartbeat CPU 0 instructions: 18000001 cycles: 11321252 heartbeat IPC: 1.50025 cumulative IPC: 1.58993 (Simulation time: 0 hr 18 min 39 sec) 
Heartbeat CPU 0 instructions: 19000002 cycles: 11990059 heartbeat IPC: 1.4952 cumulative IPC: 1.58465 (Simulation time: 0 hr 19 min 45 sec) 
Heartbeat CPU 0 instructions: 20000000 cycles: 12562286 heartbeat IPC: 1.74755 cumulative IPC: 1.59207 (Simulation time: 0 hr 21 min 0 sec) 
Heartbeat CPU 0 instructions: 21000000 cycles: 13151637 heartbeat IPC: 1.69678 cumulative IPC: 1.59676 (Simulation time: 0 hr 22 min 9 sec) 
Heartbeat CPU 0 instructions: 22000001 cycles: 13763712 heartbeat IPC: 1.63379 cumulative IPC: 1.59841 (Simulation time: 0 hr 23 min 14 sec) 
Heartbeat CPU 0 instructions: 23000000 cycles: 14322049 heartbeat IPC: 1.79103 cumulative IPC: 1.60592 (Simulation time: 0 hr 24 min 25 sec) 
Heartbeat CPU 0 instructions: 24000000 cycles: 14882148 heartbeat IPC: 1.7854 cumulative IPC: 1.61267 (Simulation time: 0 hr 25 min 41 sec) 
Heartbeat CPU 0 instructions: 25000001 cycles: 15466016 heartbeat IPC: 1.71272 cumulative IPC: 1.61645 (Simulation time: 0 hr 26 min 52 sec) 
Heartbeat CPU 0 instructions: 26000001 cycles: 16083017 heartbeat IPC: 1.62074 cumulative IPC: 1.61661 (Simulation time: 0 hr 28 min 1 sec) 
Heartbeat CPU 0 instructions: 27000000 cycles: 16643140 heartbeat IPC: 1.78532 cumulative IPC: 1.62229 (Simulation time: 0 hr 29 min 11 sec) 
Heartbeat CPU 0 instructions: 28000000 cycles: 17201954 heartbeat IPC: 1.7895 cumulative IPC: 1.62772 (Simulation time: 0 hr 30 min 20 sec) 
Heartbeat CPU 0 instructions: 29000000 cycles: 17781044 heartbeat IPC: 1.72685 cumulative IPC: 1.63095 (Simulation time: 0 hr 31 min 26 sec) 
Heartbeat CPU 0 instructions: 30000000 cycles: 18403687 heartbeat IPC: 1.60606 cumulative IPC: 1.63011 (Simulation time: 0 hr 32 min 31 sec) 
Heartbeat CPU 0 instructions: 31000000 cycles: 18965590 heartbeat IPC: 1.77967 cumulative IPC: 1.63454 (Simulation time: 0 hr 33 min 40 sec) 
Heartbeat CPU 0 instructions: 32000000 cycles: 19523318 heartbeat IPC: 1.79299 cumulative IPC: 1.63907 (Simulation time: 0 hr 34 min 54 sec) 
Heartbeat CPU 0 instructions: 33000001 cycles: 20095628 heartbeat IPC: 1.74731 cumulative IPC: 1.64215 (Simulation time: 0 hr 36 min 5 sec) 
Heartbeat CPU 0 instructions: 34000001 cycles: 20731379 heartbeat IPC: 1.57294 cumulative IPC: 1.64003 (Simulation time: 0 hr 37 min 10 sec) 
Heartbeat CPU 0 instructions: 35000002 cycles: 21297077 heartbeat IPC: 1.76773 cumulative IPC: 1.64342 (Simulation time: 0 hr 38 min 23 sec) 
Heartbeat CPU 0 instructions: 36000000 cycles: 21857296 heartbeat IPC: 1.78501 cumulative IPC: 1.64705 (Simulation time: 0 hr 39 min 32 sec) 
Heartbeat CPU 0 instructions: 37000001 cycles: 22435844 heartbeat IPC: 1.72847 cumulative IPC: 1.64915 (Simulation time: 0 hr 40 min 38 sec) 
Heartbeat CPU 0 instructions: 38000002 cycles: 23064938 heartbeat IPC: 1.58959 cumulative IPC: 1.64752 (Simulation time: 0 hr 41 min 42 sec) 
Heartbeat CPU 0 instructions: 39000000 cycles: 23628131 heartbeat IPC: 1.77559 cumulative IPC: 1.65057 (Simulation time: 0 hr 42 min 52 sec) 
Heartbeat CPU 0 instructions: 40000000 cycles: 24188701 heartbeat IPC: 1.7839 cumulative IPC: 1.65366 (Simulation time: 0 hr 44 min 2 sec) 
Heartbeat CPU 0 instructions: 41000002 cycles: 24772159 heartbeat IPC: 1.71392 cumulative IPC: 1.65508 (Simulation time: 0 hr 45 min 9 sec) 
Heartbeat CPU 0 instructions: 42000000 cycles: 25399237 heartbeat IPC: 1.59469 cumulative IPC: 1.65359 (Simulation time: 0 hr 46 min 15 sec) 
Heartbeat CPU 0 instructions: 43000001 cycles: 25887418 heartbeat IPC: 2.04842 cumulative IPC: 1.66104 (Simulation time: 0 hr 47 min 29 sec) 
Heartbeat CPU 0 instructions: 44000000 cycles: 26548115 heartbeat IPC: 1.51355 cumulative IPC: 1.65737 (Simulation time: 0 hr 48 min 29 sec) 
Heartbeat CPU 0 instructions: 45000003 cycles: 27209758 heartbeat IPC: 1.51139 cumulative IPC: 1.65382 (Simulation time: 0 hr 49 min 35 sec) 
Heartbeat CPU 0 instructions: 46000000 cycles: 27872136 heartbeat IPC: 1.50971 cumulative IPC: 1.65039 (Simulation time: 0 hr 50 min 40 sec) 
Heartbeat CPU 0 instructions: 47000001 cycles: 28535153 heartbeat IPC: 1.50826 cumulative IPC: 1.64709 (Simulation time: 0 hr 51 min 47 sec) 
Heartbeat CPU 0 instructions: 48000000 cycles: 29197904 heartbeat IPC: 1.50886 cumulative IPC: 1.64395 (Simulation time: 0 hr 52 min 50 sec) 
Heartbeat CPU 0 instructions: 49000000 cycles: 29859402 heartbeat IPC: 1.51172 cumulative IPC: 1.64102 (Simulation time: 0 hr 53 min 52 sec) 
Heartbeat CPU 0 instructions: 50000000 cycles: 30521593 heartbeat IPC: 1.51014 cumulative IPC: 1.63818 (Simulation time: 0 hr 54 min 52 sec) 

Warmup complete CPU 0 instructions: 50000002 cycles: 30521594 (Simulation time: 0 hr 54 min 52 sec) 

Heartbeat CPU 0 instructions: 51000002 cycles: 31564946 heartbeat IPC: 0.95845 cumulative IPC: 0.958449 (Simulation time: 0 hr 56 min 2 sec) 
Heartbeat CPU 0 instructions: 52000000 cycles: 32609205 heartbeat IPC: 0.957615 cumulative IPC: 0.958032 (Simulation time: 0 hr 57 min 8 sec) 
Heartbeat CPU 0 instructions: 53000001 cycles: 33651992 heartbeat IPC: 0.95897 cumulative IPC: 0.958344 (Simulation time: 0 hr 58 min 14 sec) 
Heartbeat CPU 0 instructions: 54000002 cycles: 34720137 heartbeat IPC: 0.936203 cumulative IPC: 0.952711 (Simulation time: 0 hr 59 min 21 sec) 
Heartbeat CPU 0 instructions: 55000003 cycles: 35760542 heartbeat IPC: 0.961165 cumulative IPC: 0.95439 (Simulation time: 1 hr 0 min 28 sec) 
Heartbeat CPU 0 instructions: 56000000 cycles: 38233809 heartbeat IPC: 0.404322 cumulative IPC: 0.777986 (Simulation time: 1 hr 1 min 52 sec) 
Heartbeat CPU 0 instructions: 57000003 cycles: 40436352 heartbeat IPC: 0.454022 cumulative IPC: 0.706018 (Simulation time: 1 hr 3 min 10 sec) 
Heartbeat CPU 0 instructions: 58000000 cycles: 44098828 heartbeat IPC: 0.273039 cumulative IPC: 0.589221 (Simulation time: 1 hr 4 min 42 sec) 
Heartbeat CPU 0 instructions: 59000003 cycles: 47756682 heartbeat IPC: 0.273385 cumulative IPC: 0.522191 (Simulation time: 1 hr 6 min 12 sec) 
Heartbeat CPU 0 instructions: 60000000 cycles: 50416735 heartbeat IPC: 0.375931 cumulative IPC: 0.502635 (Simulation time: 1 hr 7 min 32 sec) 
Heartbeat CPU 0 instructions: 61000001 cycles: 52434541 heartbeat IPC: 0.495588 cumulative IPC: 0.501986 (Simulation time: 1 hr 8 min 48 sec) 
Heartbeat CPU 0 instructions: 62000001 cycles: 56108224 heartbeat IPC: 0.272206 cumulative IPC: 0.468995 (Simulation time: 1 hr 10 min 17 sec) 
Heartbeat CPU 0 instructions: 63000000 cycles: 59766072 heartbeat IPC: 0.273385 cumulative IPC: 0.444528 (Simulation time: 1 hr 11 min 46 sec) 
Heartbeat CPU 0 instructions: 64000000 cycles: 62604010 heartbeat IPC: 0.352369 cumulative IPC: 0.436376 (Simulation time: 1 hr 13 min 8 sec) 
Heartbeat CPU 0 instructions: 65000000 cycles: 64416950 heartbeat IPC: 0.55159 cumulative IPC: 0.442538 (Simulation time: 1 hr 14 min 20 sec) 
Heartbeat CPU 0 instructions: 66000000 cycles: 68067968 heartbeat IPC: 0.273896 cumulative IPC: 0.42614 (Simulation time: 1 hr 15 min 52 sec) 
Heartbeat CPU 0 instructions: 67000001 cycles: 71739803 heartbeat IPC: 0.272344 cumulative IPC: 0.412439 (Simulation time: 1 hr 17 min 20 sec) 
Heartbeat CPU 0 instructions: 68000000 cycles: 74810644 heartbeat IPC: 0.325643 cumulative IPC: 0.406421 (Simulation time: 1 hr 18 min 41 sec) 
Heartbeat CPU 0 instructions: 69000001 cycles: 76413791 heartbeat IPC: 0.623774 cumulative IPC: 0.414014 (Simulation time: 1 hr 19 min 56 sec) 
Heartbeat CPU 0 instructions: 70000001 cycles: 80064689 heartbeat IPC: 0.273905 cumulative IPC: 0.403689 (Simulation time: 1 hr 21 min 29 sec) 
Heartbeat CPU 0 instructions: 71000001 cycles: 83704453 heartbeat IPC: 0.274743 cumulative IPC: 0.394864 (Simulation time: 1 hr 22 min 59 sec) 
Heartbeat CPU 0 instructions: 72000000 cycles: 86782720 heartbeat IPC: 0.324858 cumulative IPC: 0.391034 (Simulation time: 1 hr 24 min 24 sec) 
Heartbeat CPU 0 instructions: 73000000 cycles: 88400067 heartbeat IPC: 0.618297 cumulative IPC: 0.397384 (Simulation time: 1 hr 25 min 36 sec) 
Heartbeat CPU 0 instructions: 74000003 cycles: 92060775 heartbeat IPC: 0.273172 cumulative IPC: 0.389995 (Simulation time: 1 hr 27 min 10 sec) 
Heartbeat CPU 0 instructions: 75000001 cycles: 95717884 heartbeat IPC: 0.273439 cumulative IPC: 0.383457 (Simulation time: 1 hr 28 min 36 sec) 
Heartbeat CPU 0 instructions: 76000000 cycles: 98672311 heartbeat IPC: 0.338475 cumulative IPC: 0.381507 (Simulation time: 1 hr 29 min 59 sec) 
Heartbeat CPU 0 instructions: 77000001 cycles: 100399322 heartbeat IPC: 0.579036 cumulative IPC: 0.386389 (Simulation time: 1 hr 31 min 6 sec) 
Heartbeat CPU 0 instructions: 78000000 cycles: 104061581 heartbeat IPC: 0.273055 cumulative IPC: 0.380745 (Simulation time: 1 hr 32 min 31 sec) 
Heartbeat CPU 0 instructions: 79000000 cycles: 107891257 heartbeat IPC: 0.261119 cumulative IPC: 0.374824 (Simulation time: 1 hr 33 min 59 sec) 
Heartbeat CPU 0 instructions: 80000000 cycles: 109889861 heartbeat IPC: 0.500349 cumulative IPC: 0.377985 (Simulation time: 1 hr 35 min 9 sec) 
Heartbeat CPU 0 instructions: 81000001 cycles: 112578248 heartbeat IPC: 0.371971 cumulative IPC: 0.377788 (Simulation time: 1 hr 36 min 26 sec) 
Heartbeat CPU 0 instructions: 82000000 cycles: 116253325 heartbeat IPC: 0.272103 cumulative IPC: 0.373257 (Simulation time: 1 hr 37 min 55 sec) 
Heartbeat CPU 0 instructions: 83000000 cycles: 119905538 heartbeat IPC: 0.273807 cumulative IPC: 0.369194 (Simulation time: 1 hr 39 min 22 sec) 
Heartbeat CPU 0 instructions: 84000000 cycles: 121853912 heartbeat IPC: 0.513249 cumulative IPC: 0.372267 (Simulation time: 1 hr 40 min 36 sec) 
Heartbeat CPU 0 instructions: 85000003 cycles: 124562259 heartbeat IPC: 0.36923 cumulative IPC: 0.372179 (Simulation time: 1 hr 41 min 59 sec) 
Heartbeat CPU 0 instructions: 86000001 cycles: 128220388 heartbeat IPC: 0.273363 cumulative IPC: 0.368479 (Simulation time: 1 hr 43 min 27 sec) 
Heartbeat CPU 0 instructions: 87000000 cycles: 131867878 heartbeat IPC: 0.274161 cumulative IPC: 0.365085 (Simulation time: 1 hr 44 min 59 sec) 
Heartbeat CPU 0 instructions: 88000000 cycles: 133645437 heartbeat IPC: 0.562569 cumulative IPC: 0.368489 (Simulation time: 1 hr 46 min 8 sec) 
Heartbeat CPU 0 instructions: 89000000 cycles: 139007429 heartbeat IPC: 0.186498 cumulative IPC: 0.359494 (Simulation time: 1 hr 47 min 58 sec) 
Heartbeat CPU 0 instructions: 90000002 cycles: 140051058 heartbeat IPC: 0.958197 cumulative IPC: 0.365199 (Simulation time: 1 hr 49 min 6 sec) 
Heartbeat CPU 0 instructions: 91000001 cycles: 141095451 heartbeat IPC: 0.957493 cumulative IPC: 0.370793 (Simulation time: 1 hr 50 min 11 sec) 
Heartbeat CPU 0 instructions: 92000000 cycles: 142139097 heartbeat IPC: 0.958178 cumulative IPC: 0.376285 (Simulation time: 1 hr 51 min 18 sec) 
Heartbeat CPU 0 instructions: 93000002 cycles: 143183437 heartbeat IPC: 0.957545 cumulative IPC: 0.381673 (Simulation time: 1 hr 52 min 24 sec) 
Heartbeat CPU 0 instructions: 94000001 cycles: 144227284 heartbeat IPC: 0.957994 cumulative IPC: 0.386964 (Simulation time: 1 hr 53 min 28 sec) 
Heartbeat CPU 0 instructions: 95000000 cycles: 145271569 heartbeat IPC: 0.957592 cumulative IPC: 0.392157 (Simulation time: 1 hr 54 min 33 sec) 
Heartbeat CPU 0 instructions: 96000000 cycles: 146316549 heartbeat IPC: 0.956956 cumulative IPC: 0.397254 (Simulation time: 1 hr 55 min 38 sec) 
Heartbeat CPU 0 instructions: 97000002 cycles: 147387661 heartbeat IPC: 0.933611 cumulative IPC: 0.40217 (Simulation time: 1 hr 56 min 47 sec) 
Heartbeat CPU 0 instructions: 98000000 cycles: 148433491 heartbeat IPC: 0.956176 cumulative IPC: 0.407084 (Simulation time: 1 hr 57 min 54 sec) 
Heartbeat CPU 0 instructions: 99000003 cycles: 149471918 heartbeat IPC: 0.962998 cumulative IPC: 0.411937 (Simulation time: 1 hr 58 min 57 sec) 
Heartbeat CPU 0 instructions: 100000000 cycles: 150508392 heartbeat IPC: 0.964807 cumulative IPC: 0.416712 (Simulation time: 2 hr 0 min 5 sec) 
Heartbeat CPU 0 instructions: 101000001 cycles: 151549557 heartbeat IPC: 0.960464 cumulative IPC: 0.42139 (Simulation time: 2 hr 1 min 12 sec) 
Heartbeat CPU 0 instructions: 102000001 cycles: 155135046 heartbeat IPC: 0.278902 cumulative IPC: 0.41729 (Simulation time: 2 hr 2 min 40 sec) 
Heartbeat CPU 0 instructions: 103000001 cycles: 156594735 heartbeat IPC: 0.685077 cumulative IPC: 0.420391 (Simulation time: 2 hr 3 min 50 sec) 
Heartbeat CPU 0 instructions: 104000000 cycles: 159861376 heartbeat IPC: 0.306125 cumulative IPC: 0.417505 (Simulation time: 2 hr 5 min 16 sec) 
Heartbeat CPU 0 instructions: 105000000 cycles: 163508997 heartbeat IPC: 0.274151 cumulative IPC: 0.413573 (Simulation time: 2 hr 6 min 44 sec) 
Heartbeat CPU 0 instructions: 106000000 cycles: 167081024 heartbeat IPC: 0.279953 cumulative IPC: 0.410078 (Simulation time: 2 hr 8 min 12 sec) 
Heartbeat CPU 0 instructions: 107000001 cycles: 168726354 heartbeat IPC: 0.607781 cumulative IPC: 0.412432 (Simulation time: 2 hr 9 min 18 sec) 
Heartbeat CPU 0 instructions: 108000000 cycles: 171827189 heartbeat IPC: 0.322493 cumulative IPC: 0.410458 (Simulation time: 2 hr 10 min 41 sec) 
Heartbeat CPU 0 instructions: 109000000 cycles: 175483993 heartbeat IPC: 0.273463 cumulative IPC: 0.407002 (Simulation time: 2 hr 12 min 7 sec) 
Heartbeat CPU 0 instructions: 110000000 cycles: 179116055 heartbeat IPC: 0.275326 cumulative IPC: 0.403784 (Simulation time: 2 hr 13 min 35 sec) 
Heartbeat CPU 0 instructions: 111000000 cycles: 180925865 heartbeat IPC: 0.552544 cumulative IPC: 0.405574 (Simulation time: 2 hr 14 min 47 sec) 
Heartbeat CPU 0 instructions: 112000000 cycles: 183801050 heartbeat IPC: 0.347804 cumulative IPC: 0.40449 (Simulation time: 2 hr 16 min 7 sec) 
Heartbeat CPU 0 instructions: 113000001 cycles: 187453322 heartbeat IPC: 0.273802 cumulative IPC: 0.401448 (Simulation time: 2 hr 17 min 32 sec) 
Heartbeat CPU 0 instructions: 114000001 cycles: 191121923 heartbeat IPC: 0.272583 cumulative IPC: 0.398505 (Simulation time: 2 hr 19 min 3 sec) 
Heartbeat CPU 0 instructions: 115000002 cycles: 193143153 heartbeat IPC: 0.494749 cumulative IPC: 0.399701 (Simulation time: 2 hr 20 min 15 sec) 
Heartbeat CPU 0 instructions: 116000000 cycles: 195800295 heartbeat IPC: 0.376343 cumulative IPC: 0.399325 (Simulation time: 2 hr 21 min 37 sec) 
Heartbeat CPU 0 instructions: 117000000 cycles: 199431476 heartbeat IPC: 0.275393 cumulative IPC: 0.396661 (Simulation time: 2 hr 23 min 4 sec) 
Heartbeat CPU 0 instructions: 118000001 cycles: 203114707 heartbeat IPC: 0.271501 cumulative IPC: 0.39399 (Simulation time: 2 hr 24 min 34 sec) 
Heartbeat CPU 0 instructions: 119000002 cycles: 205025783 heartbeat IPC: 0.523266 cumulative IPC: 0.395406 (Simulation time: 2 hr 25 min 49 sec) 
Heartbeat CPU 0 instructions: 120000000 cycles: 207817503 heartbeat IPC: 0.358201 cumulative IPC: 0.39482 (Simulation time: 2 hr 27 min 13 sec) 
Heartbeat CPU 0 instructions: 121000000 cycles: 211469154 heartbeat IPC: 0.273849 cumulative IPC: 0.392379 (Simulation time: 2 hr 28 min 46 sec) 
Heartbeat CPU 0 instructions: 122000000 cycles: 215112800 heartbeat IPC: 0.27445 cumulative IPC: 0.390051 (Simulation time: 2 hr 30 min 14 sec) 
Heartbeat CPU 0 instructions: 123000002 cycles: 216902704 heartbeat IPC: 0.55869 cumulative IPC: 0.391671 (Simulation time: 2 hr 31 min 23 sec) 
Heartbeat CPU 0 instructions: 124000000 cycles: 219773669 heartbeat IPC: 0.348314 cumulative IPC: 0.391013 (Simulation time: 2 hr 32 min 41 sec) 
Heartbeat CPU 0 instructions: 125000000 cycles: 223585464 heartbeat IPC: 0.262344 cumulative IPC: 0.388472 (Simulation time: 2 hr 34 min 16 sec) 
Heartbeat CPU 0 instructions: 126000001 cycles: 227097563 heartbeat IPC: 0.28473 cumulative IPC: 0.386619 (Simulation time: 2 hr 35 min 43 sec) 
Heartbeat CPU 0 instructions: 127000002 cycles: 228276723 heartbeat IPC: 0.848062 cumulative IPC: 0.38937 (Simulation time: 2 hr 36 min 51 sec) 
Heartbeat CPU 0 instructions: 128000000 cycles: 231934986 heartbeat IPC: 0.273353 cumulative IPC: 0.387263 (Simulation time: 2 hr 38 min 18 sec) 
Heartbeat CPU 0 instructions: 129000000 cycles: 235573540 heartbeat IPC: 0.274834 cumulative IPC: 0.385268 (Simulation time: 2 hr 39 min 45 sec) 
Heartbeat CPU 0 instructions: 130000001 cycles: 239041701 heartbeat IPC: 0.288338 cumulative IPC: 0.383656 (Simulation time: 2 hr 41 min 7 sec) 
Heartbeat CPU 0 instructions: 131000002 cycles: 240262010 heartbeat IPC: 0.819465 cumulative IPC: 0.386192 (Simulation time: 2 hr 42 min 11 sec) 
Heartbeat CPU 0 instructions: 132000000 cycles: 243924686 heartbeat IPC: 0.273024 cumulative IPC: 0.384249 (Simulation time: 2 hr 43 min 34 sec) 
Heartbeat CPU 0 instructions: 133000000 cycles: 247572680 heartbeat IPC: 0.274123 cumulative IPC: 0.382398 (Simulation time: 2 hr 44 min 59 sec) 
Heartbeat CPU 0 instructions: 134000000 cycles: 250867250 heartbeat IPC: 0.30353 cumulative IPC: 0.381219 (Simulation time: 2 hr 46 min 22 sec) 
Heartbeat CPU 0 instructions: 135000001 cycles: 254693291 heartbeat IPC: 0.261367 cumulative IPC: 0.379174 (Simulation time: 2 hr 47 min 46 sec) 
Heartbeat CPU 0 instructions: 136000000 cycles: 255737462 heartbeat IPC: 0.957697 cumulative IPC: 0.381856 (Simulation time: 2 hr 48 min 48 sec) 
Heartbeat CPU 0 instructions: 137000001 cycles: 256782647 heartbeat IPC: 0.956769 cumulative IPC: 0.384512 (Simulation time: 2 hr 49 min 48 sec) 
Heartbeat CPU 0 instructions: 138000001 cycles: 257827351 heartbeat IPC: 0.957209 cumulative IPC: 0.387144 (Simulation time: 2 hr 50 min 45 sec) 
Heartbeat CPU 0 instructions: 139000001 cycles: 258872882 heartbeat IPC: 0.956452 cumulative IPC: 0.38975 (Simulation time: 2 hr 51 min 44 sec) 
Heartbeat CPU 0 instructions: 140000000 cycles: 259919406 heartbeat IPC: 0.955543 cumulative IPC: 0.392332 (Simulation time: 2 hr 52 min 45 sec) 
Heartbeat CPU 0 instructions: 141000001 cycles: 260989841 heartbeat IPC: 0.934201 cumulative IPC: 0.394848 (Simulation time: 2 hr 53 min 42 sec) 
Heartbeat CPU 0 instructions: 142000002 cycles: 262033715 heartbeat IPC: 0.957971 cumulative IPC: 0.397387 (Simulation time: 2 hr 54 min 40 sec) 
Heartbeat CPU 0 instructions: 143000001 cycles: 263078869 heartbeat IPC: 0.956796 cumulative IPC: 0.399901 (Simulation time: 2 hr 55 min 42 sec) 
Heartbeat CPU 0 instructions: 144000000 cycles: 264122861 heartbeat IPC: 0.957861 cumulative IPC: 0.402395 (Simulation time: 2 hr 56 min 44 sec) 
Heartbeat CPU 0 instructions: 145000003 cycles: 265165590 heartbeat IPC: 0.959025 cumulative IPC: 0.404869 (Simulation time: 2 hr 57 min 36 sec) 
Heartbeat CPU 0 instructions: 146000001 cycles: 266206916 heartbeat IPC: 0.960312 cumulative IPC: 0.407323 (Simulation time: 2 hr 58 min 36 sec) 
Heartbeat CPU 0 instructions: 147000000 cycles: 267248733 heartbeat IPC: 0.959861 cumulative IPC: 0.409754 (Simulation time: 2 hr 59 min 30 sec) 
Heartbeat CPU 0 instructions: 148000000 cycles: 270904831 heartbeat IPC: 0.273516 cumulative IPC: 0.407682 (Simulation time: 3 hr 0 min 42 sec) 
Heartbeat CPU 0 instructions: 149000000 cycles: 273811845 heartbeat IPC: 0.343996 cumulative IPC: 0.406921 (Simulation time: 3 hr 1 min 45 sec) 
Heartbeat CPU 0 instructions: 150000000 cycles: 275571419 heartbeat IPC: 0.568319 cumulative IPC: 0.40808 (Simulation time: 3 hr 2 min 40 sec) 
Finished CPU 0 instructions: 100000002 cycles: 245049831 cummulative IPC: 0.40808 (Simulation time: 3 hr 2 min 40 sec) 

ChampSim completed all CPUs

Region of Interest Statistics

CPU 0 cummulative IPC: 0.40808 instructions: 100000002 cycles: 245049831
LLC TOTAL     ACCESS:    3415688  HIT:      47601  MISS:    3368087
LLC LOAD      ACCESS:    1653620  HIT:      20078  MISS:    1633542
LLC RFO       ACCESS:       5352  HIT:        279  MISS:       5073
LLC PREFETCH  ACCESS:    1739315  HIT:       9843  MISS:    1729472
LLC WRITEBACK ACCESS:      17401  HIT:      17401  MISS:          0
