
*** ChampSim Multicore Out-of-Order Simulator ***

Warmup Instructions: 50000000
Simulation Instructions: 100000000
Configuration: 2
Number of CPUs: 1
LLC sets: 2048
LLC ways: 16
Off-chip DRAM Channels: 1 Width: 64-bit Data Rate: 1600 MT/s

CPU 0 runs /datasets/cs240c-wi22-a00-public/data/Assignment2-gz/sphinx3_1339B.trace.gz
CPU 0 L1D next line prefetcher
CPU 0 L2C IP-based stride prefetcher
Initialize LRU replacement state
Heartbeat CPU 0 instructions: 1000000 cycles: 339022 heartbeat IPC: 2.94966 cumulative IPC: 2.94966 (Simulation time: 0 hr 1 min 5 sec) 
Heartbeat CPU 0 instructions: 2000001 cycles: 693417 heartbeat IPC: 2.82171 cumulative IPC: 2.88427 (Simulation time: 0 hr 2 min 3 sec) 
Heartbeat CPU 0 instructions: 3000000 cycles: 1084463 heartbeat IPC: 2.55724 cumulative IPC: 2.76635 (Simulation time: 0 hr 3 min 13 sec) 
Heartbeat CPU 0 instructions: 4000000 cycles: 1529986 heartbeat IPC: 2.24455 cumulative IPC: 2.6144 (Simulation time: 0 hr 4 min 18 sec) 
Heartbeat CPU 0 instructions: 5000003 cycles: 1869005 heartbeat IPC: 2.9497 cumulative IPC: 2.67522 (Simulation time: 0 hr 5 min 23 sec) 
Heartbeat CPU 0 instructions: 6000002 cycles: 2253128 heartbeat IPC: 2.60333 cumulative IPC: 2.66297 (Simulation time: 0 hr 6 min 28 sec) 
Heartbeat CPU 0 instructions: 7000001 cycles: 2716893 heartbeat IPC: 2.15626 cumulative IPC: 2.57647 (Simulation time: 0 hr 7 min 25 sec) 
Heartbeat CPU 0 instructions: 8000000 cycles: 3055771 heartbeat IPC: 2.95091 cumulative IPC: 2.618 (Simulation time: 0 hr 8 min 20 sec) 
Heartbeat CPU 0 instructions: 9000003 cycles: 3412413 heartbeat IPC: 2.80394 cumulative IPC: 2.63743 (Simulation time: 0 hr 9 min 23 sec) 
Heartbeat CPU 0 instructions: 10000001 cycles: 3799143 heartbeat IPC: 2.58578 cumulative IPC: 2.63217 (Simulation time: 0 hr 10 min 36 sec) 
Heartbeat CPU 0 instructions: 11000002 cycles: 4242370 heartbeat IPC: 2.25618 cumulative IPC: 2.59289 (Simulation time: 0 hr 11 min 38 sec) 
Heartbeat CPU 0 instructions: 12000000 cycles: 4581337 heartbeat IPC: 2.95013 cumulative IPC: 2.61932 (Simulation time: 0 hr 12 min 47 sec) 
Heartbeat CPU 0 instructions: 13000000 cycles: 4973289 heartbeat IPC: 2.55133 cumulative IPC: 2.61396 (Simulation time: 0 hr 13 min 53 sec) 
Heartbeat CPU 0 instructions: 14000003 cycles: 5428327 heartbeat IPC: 2.19763 cumulative IPC: 2.57906 (Simulation time: 0 hr 15 min 0 sec) 
Heartbeat CPU 0 instructions: 15000003 cycles: 5767288 heartbeat IPC: 2.95019 cumulative IPC: 2.60088 (Simulation time: 0 hr 16 min 9 sec) 
Heartbeat CPU 0 instructions: 16000000 cycles: 6132220 heartbeat IPC: 2.74023 cumulative IPC: 2.60917 (Simulation time: 0 hr 17 min 22 sec) 
Heartbeat CPU 0 instructions: 17000000 cycles: 6579270 heartbeat IPC: 2.23689 cumulative IPC: 2.58387 (Simulation time: 0 hr 18 min 39 sec) 
Heartbeat CPU 0 instructions: 18000000 cycles: 7018603 heartbeat IPC: 2.27618 cumulative IPC: 2.56461 (Simulation time: 0 hr 19 min 57 sec) 
Heartbeat CPU 0 instructions: 19000001 cycles: 7463594 heartbeat IPC: 2.24724 cumulative IPC: 2.54569 (Simulation time: 0 hr 21 min 2 sec) 
Heartbeat CPU 0 instructions: 20000000 cycles: 7802656 heartbeat IPC: 2.94931 cumulative IPC: 2.56323 (Simulation time: 0 hr 22 min 5 sec) 
Heartbeat CPU 0 instructions: 21000000 cycles: 8184336 heartbeat IPC: 2.62 cumulative IPC: 2.56588 (Simulation time: 0 hr 23 min 22 sec) 
Heartbeat CPU 0 instructions: 22000000 cycles: 8650105 heartbeat IPC: 2.14699 cumulative IPC: 2.54332 (Simulation time: 0 hr 24 min 37 sec) 
Heartbeat CPU 0 instructions: 23000001 cycles: 8989145 heartbeat IPC: 2.94951 cumulative IPC: 2.55864 (Simulation time: 0 hr 25 min 44 sec) 
Heartbeat CPU 0 instructions: 24000000 cycles: 9339506 heartbeat IPC: 2.8542 cumulative IPC: 2.56973 (Simulation time: 0 hr 26 min 57 sec) 
Heartbeat CPU 0 instructions: 25000000 cycles: 9747802 heartbeat IPC: 2.4492 cumulative IPC: 2.56468 (Simulation time: 0 hr 28 min 7 sec) 
Heartbeat CPU 0 instructions: 26000003 cycles: 10150721 heartbeat IPC: 2.4819 cumulative IPC: 2.56139 (Simulation time: 0 hr 29 min 15 sec) 
Heartbeat CPU 0 instructions: 27000002 cycles: 10489662 heartbeat IPC: 2.95036 cumulative IPC: 2.57396 (Simulation time: 0 hr 30 min 28 sec) 
Heartbeat CPU 0 instructions: 28000000 cycles: 10866834 heartbeat IPC: 2.6513 cumulative IPC: 2.57665 (Simulation time: 0 hr 31 min 39 sec) 
Heartbeat CPU 0 instructions: 29000001 cycles: 11307491 heartbeat IPC: 2.26934 cumulative IPC: 2.56467 (Simulation time: 0 hr 32 min 46 sec) 
Heartbeat CPU 0 instructions: 30000002 cycles: 11646514 heartbeat IPC: 2.94966 cumulative IPC: 2.57588 (Simulation time: 0 hr 33 min 53 sec) 
Heartbeat CPU 0 instructions: 31000003 cycles: 12017158 heartbeat IPC: 2.69801 cumulative IPC: 2.57965 (Simulation time: 0 hr 35 min 1 sec) 
Heartbeat CPU 0 instructions: 32000000 cycles: 12459899 heartbeat IPC: 2.25865 cumulative IPC: 2.56824 (Simulation time: 0 hr 36 min 3 sec) 
Heartbeat CPU 0 instructions: 33000000 cycles: 12798961 heartbeat IPC: 2.94931 cumulative IPC: 2.57833 (Simulation time: 0 hr 37 min 11 sec) 
Heartbeat CPU 0 instructions: 34000001 cycles: 13186601 heartbeat IPC: 2.57972 cumulative IPC: 2.57837 (Simulation time: 0 hr 38 min 25 sec) 
Heartbeat CPU 0 instructions: 35000003 cycles: 13647838 heartbeat IPC: 2.16809 cumulative IPC: 2.56451 (Simulation time: 0 hr 39 min 35 sec) 
Heartbeat CPU 0 instructions: 36000000 cycles: 13986725 heartbeat IPC: 2.95083 cumulative IPC: 2.57387 (Simulation time: 0 hr 40 min 48 sec) 
Heartbeat CPU 0 instructions: 37000003 cycles: 14343389 heartbeat IPC: 2.80377 cumulative IPC: 2.57959 (Simulation time: 0 hr 42 min 0 sec) 
Heartbeat CPU 0 instructions: 38000000 cycles: 14731397 heartbeat IPC: 2.57726 cumulative IPC: 2.57952 (Simulation time: 0 hr 43 min 11 sec) 
Heartbeat CPU 0 instructions: 39000002 cycles: 15174681 heartbeat IPC: 2.25589 cumulative IPC: 2.57007 (Simulation time: 0 hr 44 min 19 sec) 
Heartbeat CPU 0 instructions: 40000000 cycles: 15513714 heartbeat IPC: 2.94956 cumulative IPC: 2.57836 (Simulation time: 0 hr 45 min 25 sec) 
Heartbeat CPU 0 instructions: 41000003 cycles: 15898389 heartbeat IPC: 2.5996 cumulative IPC: 2.57888 (Simulation time: 0 hr 46 min 37 sec) 
Heartbeat CPU 0 instructions: 42000002 cycles: 16353148 heartbeat IPC: 2.19896 cumulative IPC: 2.56831 (Simulation time: 0 hr 47 min 49 sec) 
Heartbeat CPU 0 instructions: 43000001 cycles: 16692116 heartbeat IPC: 2.95013 cumulative IPC: 2.57607 (Simulation time: 0 hr 48 min 54 sec) 
Heartbeat CPU 0 instructions: 44000000 cycles: 17056300 heartbeat IPC: 2.74586 cumulative IPC: 2.57969 (Simulation time: 0 hr 50 min 8 sec) 
Heartbeat CPU 0 instructions: 45000000 cycles: 17469479 heartbeat IPC: 2.42026 cumulative IPC: 2.57592 (Simulation time: 0 hr 51 min 19 sec) 
Heartbeat CPU 0 instructions: 46000002 cycles: 17869034 heartbeat IPC: 2.50279 cumulative IPC: 2.57429 (Simulation time: 0 hr 52 min 29 sec) 
Heartbeat CPU 0 instructions: 47000003 cycles: 18208030 heartbeat IPC: 2.94989 cumulative IPC: 2.58128 (Simulation time: 0 hr 53 min 35 sec) 
Heartbeat CPU 0 instructions: 48000000 cycles: 18585121 heartbeat IPC: 2.65187 cumulative IPC: 2.58271 (Simulation time: 0 hr 54 min 48 sec) 
Heartbeat CPU 0 instructions: 49000002 cycles: 19026199 heartbeat IPC: 2.26718 cumulative IPC: 2.5754 (Simulation time: 0 hr 56 min 0 sec) 
Heartbeat CPU 0 instructions: 50000002 cycles: 19365159 heartbeat IPC: 2.9502 cumulative IPC: 2.58196 (Simulation time: 0 hr 57 min 8 sec) 

Warmup complete CPU 0 instructions: 50000002 cycles: 19365159 (Simulation time: 0 hr 57 min 8 sec) 

Heartbeat CPU 0 instructions: 51000001 cycles: 20849469 heartbeat IPC: 0.673713 cumulative IPC: 0.673713 (Simulation time: 0 hr 58 min 37 sec) 
Heartbeat CPU 0 instructions: 52000000 cycles: 21775965 heartbeat IPC: 1.07933 cumulative IPC: 0.829597 (Simulation time: 0 hr 59 min 59 sec) 
Heartbeat CPU 0 instructions: 53000002 cycles: 22681327 heartbeat IPC: 1.10453 cumulative IPC: 0.904659 (Simulation time: 1 hr 1 min 19 sec) 
Heartbeat CPU 0 instructions: 54000003 cycles: 24088158 heartbeat IPC: 0.710818 cumulative IPC: 0.84692 (Simulation time: 1 hr 2 min 47 sec) 
Heartbeat CPU 0 instructions: 55000001 cycles: 25127528 heartbeat IPC: 0.962119 cumulative IPC: 0.867698 (Simulation time: 1 hr 4 min 12 sec) 
Heartbeat CPU 0 instructions: 56000000 cycles: 26026219 heartbeat IPC: 1.11273 cumulative IPC: 0.900757 (Simulation time: 1 hr 5 min 39 sec) 
Heartbeat CPU 0 instructions: 57000000 cycles: 27141357 heartbeat IPC: 0.89675 cumulative IPC: 0.900183 (Simulation time: 1 hr 7 min 4 sec) 
Heartbeat CPU 0 instructions: 58000000 cycles: 28503698 heartbeat IPC: 0.734031 cumulative IPC: 0.875413 (Simulation time: 1 hr 8 min 29 sec) 
Heartbeat CPU 0 instructions: 59000002 cycles: 29386814 heartbeat IPC: 1.13236 cumulative IPC: 0.898055 (Simulation time: 1 hr 9 min 47 sec) 
Heartbeat CPU 0 instructions: 60000000 cycles: 30292971 heartbeat IPC: 1.10356 cumulative IPC: 0.915096 (Simulation time: 1 hr 11 min 10 sec) 
Heartbeat CPU 0 instructions: 61000000 cycles: 31924991 heartbeat IPC: 0.612738 cumulative IPC: 0.875808 (Simulation time: 1 hr 12 min 38 sec) 
Heartbeat CPU 0 instructions: 62000002 cycles: 33069057 heartbeat IPC: 0.874077 cumulative IPC: 0.875663 (Simulation time: 1 hr 13 min 55 sec) 
Heartbeat CPU 0 instructions: 63000003 cycles: 33997667 heartbeat IPC: 1.07688 cumulative IPC: 0.888433 (Simulation time: 1 hr 15 min 11 sec) 
Heartbeat CPU 0 instructions: 64000000 cycles: 34913484 heartbeat IPC: 1.09192 cumulative IPC: 0.900418 (Simulation time: 1 hr 16 min 30 sec) 
Heartbeat CPU 0 instructions: 65000000 cycles: 36211914 heartbeat IPC: 0.770161 cumulative IPC: 0.890379 (Simulation time: 1 hr 17 min 55 sec) 
Heartbeat CPU 0 instructions: 66000001 cycles: 37398831 heartbeat IPC: 0.84252 cumulative IPC: 0.887229 (Simulation time: 1 hr 19 min 14 sec) 
Heartbeat CPU 0 instructions: 67000000 cycles: 38281314 heartbeat IPC: 1.13317 cumulative IPC: 0.898703 (Simulation time: 1 hr 20 min 36 sec) 
Heartbeat CPU 0 instructions: 68000000 cycles: 39277423 heartbeat IPC: 1.00391 cumulative IPC: 0.903965 (Simulation time: 1 hr 21 min 59 sec) 
Heartbeat CPU 0 instructions: 69000003 cycles: 40697507 heartbeat IPC: 0.704186 cumulative IPC: 0.890666 (Simulation time: 1 hr 23 min 21 sec) 
Heartbeat CPU 0 instructions: 70000001 cycles: 41637359 heartbeat IPC: 1.064 cumulative IPC: 0.89798 (Simulation time: 1 hr 24 min 39 sec) 
Heartbeat CPU 0 instructions: 71000001 cycles: 42541403 heartbeat IPC: 1.10614 cumulative IPC: 0.9061 (Simulation time: 1 hr 25 min 55 sec) 
Heartbeat CPU 0 instructions: 72000000 cycles: 44082085 heartbeat IPC: 0.649063 cumulative IPC: 0.890078 (Simulation time: 1 hr 27 min 16 sec) 
Heartbeat CPU 0 instructions: 73000001 cycles: 45016091 heartbeat IPC: 1.07066 cumulative IPC: 0.896654 (Simulation time: 1 hr 28 min 35 sec) 
Heartbeat CPU 0 instructions: 74000001 cycles: 45923905 heartbeat IPC: 1.10155 cumulative IPC: 0.903657 (Simulation time: 1 hr 29 min 50 sec) 
Heartbeat CPU 0 instructions: 75000003 cycles: 47264129 heartbeat IPC: 0.746145 cumulative IPC: 0.89609 (Simulation time: 1 hr 31 min 8 sec) 
Heartbeat CPU 0 instructions: 76000000 cycles: 48393826 heartbeat IPC: 0.88519 cumulative IPC: 0.895666 (Simulation time: 1 hr 32 min 27 sec) 
Heartbeat CPU 0 instructions: 77000002 cycles: 49289362 heartbeat IPC: 1.11665 cumulative IPC: 0.90228 (Simulation time: 1 hr 33 min 40 sec) 
Heartbeat CPU 0 instructions: 78000002 cycles: 50345280 heartbeat IPC: 0.947043 cumulative IPC: 0.903805 (Simulation time: 1 hr 34 min 55 sec) 
Heartbeat CPU 0 instructions: 79000001 cycles: 51703143 heartbeat IPC: 0.736451 cumulative IPC: 0.896778 (Simulation time: 1 hr 36 min 14 sec) 
Heartbeat CPU 0 instructions: 80000000 cycles: 52630276 heartbeat IPC: 1.07859 cumulative IPC: 0.901846 (Simulation time: 1 hr 37 min 30 sec) 
Heartbeat CPU 0 instructions: 81000001 cycles: 53536263 heartbeat IPC: 1.10377 cumulative IPC: 0.907199 (Simulation time: 1 hr 38 min 42 sec) 
Heartbeat CPU 0 instructions: 82000000 cycles: 55037682 heartbeat IPC: 0.666036 cumulative IPC: 0.897049 (Simulation time: 1 hr 40 min 3 sec) 
Heartbeat CPU 0 instructions: 83000001 cycles: 55970059 heartbeat IPC: 1.07253 cumulative IPC: 0.901519 (Simulation time: 1 hr 41 min 18 sec) 
Heartbeat CPU 0 instructions: 84000000 cycles: 56874805 heartbeat IPC: 1.10528 cumulative IPC: 0.906433 (Simulation time: 1 hr 42 min 30 sec) 
Heartbeat CPU 0 instructions: 85000002 cycles: 58287977 heartbeat IPC: 0.707629 cumulative IPC: 0.899215 (Simulation time: 1 hr 43 min 50 sec) 
Heartbeat CPU 0 instructions: 86000003 cycles: 59341343 heartbeat IPC: 0.949339 cumulative IPC: 0.900536 (Simulation time: 1 hr 45 min 13 sec) 
Heartbeat CPU 0 instructions: 87000001 cycles: 60249377 heartbeat IPC: 1.10128 cumulative IPC: 0.904995 (Simulation time: 1 hr 46 min 29 sec) 
Heartbeat CPU 0 instructions: 88000000 cycles: 61458982 heartbeat IPC: 0.826715 cumulative IPC: 0.902745 (Simulation time: 1 hr 47 min 53 sec) 
Heartbeat CPU 0 instructions: 89000000 cycles: 62721483 heartbeat IPC: 0.792079 cumulative IPC: 0.899523 (Simulation time: 1 hr 49 min 14 sec) 
Heartbeat CPU 0 instructions: 90000000 cycles: 63597944 heartbeat IPC: 1.14095 cumulative IPC: 0.904307 (Simulation time: 1 hr 50 min 28 sec) 
Heartbeat CPU 0 instructions: 91000000 cycles: 64520082 heartbeat IPC: 1.08444 cumulative IPC: 0.907985 (Simulation time: 1 hr 51 min 46 sec) 
Heartbeat CPU 0 instructions: 92000000 cycles: 66049918 heartbeat IPC: 0.653665 cumulative IPC: 0.899651 (Simulation time: 1 hr 53 min 11 sec) 
Heartbeat CPU 0 instructions: 93000001 cycles: 66977638 heartbeat IPC: 1.07791 cumulative IPC: 0.903125 (Simulation time: 1 hr 54 min 26 sec) 
Heartbeat CPU 0 instructions: 94000000 cycles: 67886007 heartbeat IPC: 1.10087 cumulative IPC: 0.906827 (Simulation time: 1 hr 55 min 43 sec) 
Heartbeat CPU 0 instructions: 95000003 cycles: 69437460 heartbeat IPC: 0.644559 cumulative IPC: 0.8987 (Simulation time: 1 hr 57 min 5 sec) 
Heartbeat CPU 0 instructions: 96000000 cycles: 70400906 heartbeat IPC: 1.03794 cumulative IPC: 0.901329 (Simulation time: 1 hr 58 min 19 sec) 
Heartbeat CPU 0 instructions: 97000002 cycles: 71305948 heartbeat IPC: 1.10492 cumulative IPC: 0.904877 (Simulation time: 1 hr 59 min 34 sec) 
Heartbeat CPU 0 instructions: 98000000 cycles: 72606557 heartbeat IPC: 0.768869 cumulative IPC: 0.901554 (Simulation time: 2 hr 0 min 51 sec) 
Heartbeat CPU 0 instructions: 99000003 cycles: 73973545 heartbeat IPC: 0.731538 cumulative IPC: 0.897298 (Simulation time: 2 hr 2 min 9 sec) 
Heartbeat CPU 0 instructions: 100000000 cycles: 74868012 heartbeat IPC: 1.11798 cumulative IPC: 0.900855 (Simulation time: 2 hr 3 min 26 sec) 
Heartbeat CPU 0 instructions: 101000000 cycles: 75801267 heartbeat IPC: 1.07152 cumulative IPC: 0.903677 (Simulation time: 2 hr 4 min 40 sec) 
Heartbeat CPU 0 instructions: 102000000 cycles: 77586286 heartbeat IPC: 0.560218 cumulative IPC: 0.893147 (Simulation time: 2 hr 6 min 6 sec) 
Heartbeat CPU 0 instructions: 103000000 cycles: 78943425 heartbeat IPC: 0.736844 cumulative IPC: 0.889586 (Simulation time: 2 hr 7 min 29 sec) 
Heartbeat CPU 0 instructions: 104000000 cycles: 79971640 heartbeat IPC: 0.972559 cumulative IPC: 0.890994 (Simulation time: 2 hr 8 min 44 sec) 
Heartbeat CPU 0 instructions: 105000003 cycles: 80878157 heartbeat IPC: 1.10313 cumulative IPC: 0.89412 (Simulation time: 2 hr 10 min 3 sec) 
Heartbeat CPU 0 instructions: 106000000 cycles: 81868017 heartbeat IPC: 1.01024 cumulative IPC: 0.895959 (Simulation time: 2 hr 11 min 26 sec) 
Heartbeat CPU 0 instructions: 107000001 cycles: 83768010 heartbeat IPC: 0.526318 cumulative IPC: 0.885054 (Simulation time: 2 hr 12 min 54 sec) 
Heartbeat CPU 0 instructions: 108000000 cycles: 84790508 heartbeat IPC: 0.977996 cumulative IPC: 0.886506 (Simulation time: 2 hr 14 min 13 sec) 
Heartbeat CPU 0 instructions: 109000000 cycles: 85721450 heartbeat IPC: 1.07418 cumulative IPC: 0.889139 (Simulation time: 2 hr 15 min 27 sec) 
Heartbeat CPU 0 instructions: 110000003 cycles: 87032004 heartbeat IPC: 0.763038 cumulative IPC: 0.886697 (Simulation time: 2 hr 16 min 47 sec) 
Heartbeat CPU 0 instructions: 111000000 cycles: 88791908 heartbeat IPC: 0.568211 cumulative IPC: 0.878624 (Simulation time: 2 hr 18 min 13 sec) 
Heartbeat CPU 0 instructions: 112000000 cycles: 89837423 heartbeat IPC: 0.956466 cumulative IPC: 0.879779 (Simulation time: 2 hr 19 min 28 sec) 
Heartbeat CPU 0 instructions: 113000002 cycles: 90766931 heartbeat IPC: 1.07584 cumulative IPC: 0.882331 (Simulation time: 2 hr 20 min 44 sec) 
Heartbeat CPU 0 instructions: 114000000 cycles: 92248220 heartbeat IPC: 0.675086 cumulative IPC: 0.878119 (Simulation time: 2 hr 22 min 6 sec) 
Heartbeat CPU 0 instructions: 115000001 cycles: 94002261 heartbeat IPC: 0.570113 cumulative IPC: 0.870881 (Simulation time: 2 hr 23 min 28 sec) 
Heartbeat CPU 0 instructions: 116000000 cycles: 94979310 heartbeat IPC: 1.02349 cumulative IPC: 0.872852 (Simulation time: 2 hr 24 min 46 sec) 
Heartbeat CPU 0 instructions: 117000003 cycles: 95912683 heartbeat IPC: 1.07139 cumulative IPC: 0.875273 (Simulation time: 2 hr 26 min 0 sec) 
Heartbeat CPU 0 instructions: 118000003 cycles: 97485706 heartbeat IPC: 0.635719 cumulative IPC: 0.87045 (Simulation time: 2 hr 27 min 27 sec) 
Heartbeat CPU 0 instructions: 119000003 cycles: 98794825 heartbeat IPC: 0.763873 cumulative IPC: 0.868693 (Simulation time: 2 hr 28 min 47 sec) 
Heartbeat CPU 0 instructions: 120000000 cycles: 99695803 heartbeat IPC: 1.1099 cumulative IPC: 0.871398 (Simulation time: 2 hr 30 min 3 sec) 
Heartbeat CPU 0 instructions: 121000001 cycles: 100686469 heartbeat IPC: 1.00942 cumulative IPC: 0.87308 (Simulation time: 2 hr 31 min 23 sec) 
Heartbeat CPU 0 instructions: 122000002 cycles: 102318933 heartbeat IPC: 0.612572 cumulative IPC: 0.867953 (Simulation time: 2 hr 32 min 47 sec) 
Heartbeat CPU 0 instructions: 123000000 cycles: 103234182 heartbeat IPC: 1.0926 cumulative IPC: 0.870405 (Simulation time: 2 hr 34 min 3 sec) 
Heartbeat CPU 0 instructions: 124000000 cycles: 104149858 heartbeat IPC: 1.09209 cumulative IPC: 0.872799 (Simulation time: 2 hr 35 min 17 sec) 
Heartbeat CPU 0 instructions: 125000002 cycles: 105633130 heartbeat IPC: 0.674187 cumulative IPC: 0.869384 (Simulation time: 2 hr 36 min 41 sec) 
Heartbeat CPU 0 instructions: 126000000 cycles: 106646298 heartbeat IPC: 0.987001 cumulative IPC: 0.870749 (Simulation time: 2 hr 37 min 56 sec) 
Heartbeat CPU 0 instructions: 127000001 cycles: 107550956 heartbeat IPC: 1.10539 cumulative IPC: 0.873156 (Simulation time: 2 hr 39 min 8 sec) 
Heartbeat CPU 0 instructions: 128000000 cycles: 108576754 heartbeat IPC: 0.97485 cumulative IPC: 0.874326 (Simulation time: 2 hr 40 min 27 sec) 
Heartbeat CPU 0 instructions: 129000002 cycles: 109560819 heartbeat IPC: 1.0162 cumulative IPC: 0.875874 (Simulation time: 2 hr 41 min 42 sec) 
Heartbeat CPU 0 instructions: 130000002 cycles: 110402163 heartbeat IPC: 1.18857 cumulative IPC: 0.878764 (Simulation time: 2 hr 42 min 54 sec) 
Heartbeat CPU 0 instructions: 131000000 cycles: 111323465 heartbeat IPC: 1.08542 cumulative IPC: 0.880834 (Simulation time: 2 hr 44 min 7 sec) 
Heartbeat CPU 0 instructions: 132000000 cycles: 112371420 heartbeat IPC: 0.954239 cumulative IPC: 0.881661 (Simulation time: 2 hr 45 min 23 sec) 
Heartbeat CPU 0 instructions: 133000002 cycles: 113208422 heartbeat IPC: 1.19474 cumulative IPC: 0.884453 (Simulation time: 2 hr 46 min 41 sec) 
Heartbeat CPU 0 instructions: 134000000 cycles: 114194333 heartbeat IPC: 1.01429 cumulative IPC: 0.885803 (Simulation time: 2 hr 47 min 59 sec) 
Heartbeat CPU 0 instructions: 135000001 cycles: 115630122 heartbeat IPC: 0.696482 cumulative IPC: 0.88298 (Simulation time: 2 hr 49 min 18 sec) 
Heartbeat CPU 0 instructions: 136000000 cycles: 116574246 heartbeat IPC: 1.05918 cumulative IPC: 0.884691 (Simulation time: 2 hr 50 min 27 sec) 
Heartbeat CPU 0 instructions: 137000001 cycles: 117482085 heartbeat IPC: 1.10152 cumulative IPC: 0.886697 (Simulation time: 2 hr 51 min 37 sec) 
Heartbeat CPU 0 instructions: 138000001 cycles: 119051200 heartbeat IPC: 0.637302 cumulative IPC: 0.882772 (Simulation time: 2 hr 52 min 55 sec) 
Heartbeat CPU 0 instructions: 139000000 cycles: 120000672 heartbeat IPC: 1.05322 cumulative IPC: 0.88438 (Simulation time: 2 hr 54 min 5 sec) 
Heartbeat CPU 0 instructions: 140000000 cycles: 120908145 heartbeat IPC: 1.10196 cumulative IPC: 0.886324 (Simulation time: 2 hr 55 min 15 sec) 
Heartbeat CPU 0 instructions: 141000001 cycles: 122215431 heartbeat IPC: 0.764944 cumulative IPC: 0.884781 (Simulation time: 2 hr 56 min 30 sec) 
Heartbeat CPU 0 instructions: 142000000 cycles: 123385571 heartbeat IPC: 0.854598 cumulative IPC: 0.884442 (Simulation time: 2 hr 57 min 46 sec) 
Heartbeat CPU 0 instructions: 143000000 cycles: 124274863 heartbeat IPC: 1.12449 cumulative IPC: 0.886477 (Simulation time: 2 hr 58 min 54 sec) 
Heartbeat CPU 0 instructions: 144000000 cycles: 125275496 heartbeat IPC: 0.999367 cumulative IPC: 0.887543 (Simulation time: 3 hr 0 min 1 sec) 
Heartbeat CPU 0 instructions: 145000002 cycles: 126692972 heartbeat IPC: 0.705481 cumulative IPC: 0.885139 (Simulation time: 3 hr 1 min 6 sec) 
Heartbeat CPU 0 instructions: 146000000 cycles: 127616892 heartbeat IPC: 1.08234 cumulative IPC: 0.886822 (Simulation time: 3 hr 2 min 5 sec) 
Heartbeat CPU 0 instructions: 147000002 cycles: 128520311 heartbeat IPC: 1.10691 cumulative IPC: 0.888643 (Simulation time: 3 hr 3 min 1 sec) 
Heartbeat CPU 0 instructions: 148000000 cycles: 130110651 heartbeat IPC: 0.628795 cumulative IPC: 0.884912 (Simulation time: 3 hr 4 min 1 sec) 
Heartbeat CPU 0 instructions: 149000000 cycles: 131274680 heartbeat IPC: 0.859085 cumulative IPC: 0.884643 (Simulation time: 3 hr 4 min 58 sec) 
Heartbeat CPU 0 instructions: 150000001 cycles: 132221752 heartbeat IPC: 1.05589 cumulative IPC: 0.88608 (Simulation time: 3 hr 5 min 52 sec) 
Finished CPU 0 instructions: 100000003 cycles: 112856594 cummulative IPC: 0.88608 (Simulation time: 3 hr 5 min 52 sec) 

ChampSim completed all CPUs

Region of Interest Statistics

CPU 0 cummulative IPC: 0.88608 instructions: 100000003 cycles: 112856594
LLC TOTAL     ACCESS:    1600291  HIT:     330811  MISS:    1269480
LLC LOAD      ACCESS:     216468  HIT:      43285  MISS:     173183
LLC RFO       ACCESS:     111839  HIT:      26708  MISS:      85131
LLC PREFETCH  ACCESS:    1135012  HIT:     123920  MISS:    1011092
LLC WRITEBACK ACCESS:     136972  HIT:     136898  MISS:         74
