
*** ChampSim Multicore Out-of-Order Simulator ***

Warmup Instructions: 50000000
Simulation Instructions: 100000000
Configuration: 2
Number of CPUs: 1
LLC sets: 2048
LLC ways: 16
Off-chip DRAM Channels: 1 Width: 64-bit Data Rate: 1600 MT/s

CPU 0 runs /datasets/cs240c-wi22-a00-public/data/Assignment2-gz/milc_409B.trace.gz
CPU 0 L1D next line prefetcher
CPU 0 L2C IP-based stride prefetcher
Initialize LRU replacement state
Heartbeat CPU 0 instructions: 1000002 cycles: 407040 heartbeat IPC: 2.45677 cumulative IPC: 2.45677 (Simulation time: 0 hr 1 min 9 sec) 
Heartbeat CPU 0 instructions: 2000002 cycles: 889868 heartbeat IPC: 2.07113 cumulative IPC: 2.24753 (Simulation time: 0 hr 2 min 19 sec) 
Heartbeat CPU 0 instructions: 3000003 cycles: 1672035 heartbeat IPC: 1.2785 cumulative IPC: 1.79422 (Simulation time: 0 hr 3 min 52 sec) 
Heartbeat CPU 0 instructions: 4000000 cycles: 2454292 heartbeat IPC: 1.27835 cumulative IPC: 1.6298 (Simulation time: 0 hr 5 min 20 sec) 
Heartbeat CPU 0 instructions: 5000000 cycles: 3135413 heartbeat IPC: 1.46817 cumulative IPC: 1.59469 (Simulation time: 0 hr 6 min 42 sec) 
Heartbeat CPU 0 instructions: 6000003 cycles: 3679805 heartbeat IPC: 1.83692 cumulative IPC: 1.63052 (Simulation time: 0 hr 7 min 50 sec) 
Heartbeat CPU 0 instructions: 7000002 cycles: 4224111 heartbeat IPC: 1.8372 cumulative IPC: 1.65715 (Simulation time: 0 hr 9 min 17 sec) 
Heartbeat CPU 0 instructions: 8000000 cycles: 4768519 heartbeat IPC: 1.83685 cumulative IPC: 1.67767 (Simulation time: 0 hr 10 min 28 sec) 
Heartbeat CPU 0 instructions: 9000003 cycles: 5312845 heartbeat IPC: 1.83714 cumulative IPC: 1.69401 (Simulation time: 0 hr 11 min 42 sec) 
Heartbeat CPU 0 instructions: 10000000 cycles: 5857233 heartbeat IPC: 1.83692 cumulative IPC: 1.70729 (Simulation time: 0 hr 12 min 54 sec) 
Heartbeat CPU 0 instructions: 11000002 cycles: 6401583 heartbeat IPC: 1.83706 cumulative IPC: 1.71833 (Simulation time: 0 hr 14 min 18 sec) 
Heartbeat CPU 0 instructions: 12000000 cycles: 6945918 heartbeat IPC: 1.8371 cumulative IPC: 1.72763 (Simulation time: 0 hr 15 min 44 sec) 
Heartbeat CPU 0 instructions: 13000000 cycles: 7490306 heartbeat IPC: 1.83693 cumulative IPC: 1.73558 (Simulation time: 0 hr 17 min 13 sec) 
Heartbeat CPU 0 instructions: 14000002 cycles: 8034671 heartbeat IPC: 1.83701 cumulative IPC: 1.74245 (Simulation time: 0 hr 18 min 35 sec) 
Heartbeat CPU 0 instructions: 15000001 cycles: 8578998 heartbeat IPC: 1.83713 cumulative IPC: 1.74846 (Simulation time: 0 hr 20 min 7 sec) 
Heartbeat CPU 0 instructions: 16000000 cycles: 9123372 heartbeat IPC: 1.83697 cumulative IPC: 1.75374 (Simulation time: 0 hr 21 min 37 sec) 
Heartbeat CPU 0 instructions: 17000002 cycles: 9667738 heartbeat IPC: 1.837 cumulative IPC: 1.75843 (Simulation time: 0 hr 23 min 4 sec) 
Heartbeat CPU 0 instructions: 18000000 cycles: 10212108 heartbeat IPC: 1.83698 cumulative IPC: 1.76261 (Simulation time: 0 hr 24 min 32 sec) 
Heartbeat CPU 0 instructions: 19000003 cycles: 10756428 heartbeat IPC: 1.83716 cumulative IPC: 1.76639 (Simulation time: 0 hr 26 min 1 sec) 
Heartbeat CPU 0 instructions: 20000000 cycles: 11300832 heartbeat IPC: 1.83687 cumulative IPC: 1.76978 (Simulation time: 0 hr 27 min 32 sec) 
Heartbeat CPU 0 instructions: 21000001 cycles: 11845162 heartbeat IPC: 1.83712 cumulative IPC: 1.77288 (Simulation time: 0 hr 28 min 57 sec) 
Heartbeat CPU 0 instructions: 22000003 cycles: 12389529 heartbeat IPC: 1.837 cumulative IPC: 1.77569 (Simulation time: 0 hr 30 min 26 sec) 
Heartbeat CPU 0 instructions: 23000002 cycles: 12933914 heartbeat IPC: 1.83693 cumulative IPC: 1.77827 (Simulation time: 0 hr 31 min 51 sec) 
Heartbeat CPU 0 instructions: 24000000 cycles: 13478221 heartbeat IPC: 1.83719 cumulative IPC: 1.78065 (Simulation time: 0 hr 33 min 15 sec) 
Heartbeat CPU 0 instructions: 25000000 cycles: 14022617 heartbeat IPC: 1.8369 cumulative IPC: 1.78283 (Simulation time: 0 hr 34 min 45 sec) 
Heartbeat CPU 0 instructions: 26000000 cycles: 14566991 heartbeat IPC: 1.83697 cumulative IPC: 1.78486 (Simulation time: 0 hr 36 min 11 sec) 
Heartbeat CPU 0 instructions: 27000002 cycles: 15111313 heartbeat IPC: 1.83715 cumulative IPC: 1.78674 (Simulation time: 0 hr 37 min 37 sec) 
Heartbeat CPU 0 instructions: 28000000 cycles: 15655448 heartbeat IPC: 1.83778 cumulative IPC: 1.78851 (Simulation time: 0 hr 39 min 3 sec) 
Heartbeat CPU 0 instructions: 29000000 cycles: 16196638 heartbeat IPC: 1.84778 cumulative IPC: 1.7905 (Simulation time: 0 hr 40 min 28 sec) 
Heartbeat CPU 0 instructions: 30000000 cycles: 16737803 heartbeat IPC: 1.84787 cumulative IPC: 1.79235 (Simulation time: 0 hr 41 min 53 sec) 
Heartbeat CPU 0 instructions: 31000003 cycles: 17278974 heartbeat IPC: 1.84785 cumulative IPC: 1.79409 (Simulation time: 0 hr 43 min 21 sec) 
Heartbeat CPU 0 instructions: 32000000 cycles: 17820134 heartbeat IPC: 1.84788 cumulative IPC: 1.79572 (Simulation time: 0 hr 44 min 46 sec) 
Heartbeat CPU 0 instructions: 33000000 cycles: 18361312 heartbeat IPC: 1.84782 cumulative IPC: 1.79726 (Simulation time: 0 hr 46 min 12 sec) 
Heartbeat CPU 0 instructions: 34000000 cycles: 18902454 heartbeat IPC: 1.84794 cumulative IPC: 1.79871 (Simulation time: 0 hr 47 min 36 sec) 
Heartbeat CPU 0 instructions: 35000000 cycles: 19443597 heartbeat IPC: 1.84794 cumulative IPC: 1.80008 (Simulation time: 0 hr 48 min 58 sec) 
Heartbeat CPU 0 instructions: 36000000 cycles: 19984731 heartbeat IPC: 1.84797 cumulative IPC: 1.80138 (Simulation time: 0 hr 50 min 22 sec) 
Heartbeat CPU 0 instructions: 37000000 cycles: 20525943 heartbeat IPC: 1.8477 cumulative IPC: 1.8026 (Simulation time: 0 hr 51 min 50 sec) 
Heartbeat CPU 0 instructions: 38000001 cycles: 21067090 heartbeat IPC: 1.84793 cumulative IPC: 1.80376 (Simulation time: 0 hr 53 min 18 sec) 
Heartbeat CPU 0 instructions: 39000001 cycles: 21608246 heartbeat IPC: 1.8479 cumulative IPC: 1.80487 (Simulation time: 0 hr 54 min 48 sec) 
Heartbeat CPU 0 instructions: 40000000 cycles: 22149434 heartbeat IPC: 1.84778 cumulative IPC: 1.80592 (Simulation time: 0 hr 56 min 13 sec) 
Heartbeat CPU 0 instructions: 41000002 cycles: 22690599 heartbeat IPC: 1.84787 cumulative IPC: 1.80692 (Simulation time: 0 hr 57 min 36 sec) 
Heartbeat CPU 0 instructions: 42000001 cycles: 23231760 heartbeat IPC: 1.84788 cumulative IPC: 1.80787 (Simulation time: 0 hr 59 min 1 sec) 
Heartbeat CPU 0 instructions: 43000000 cycles: 23772903 heartbeat IPC: 1.84794 cumulative IPC: 1.80878 (Simulation time: 1 hr 0 min 26 sec) 
Heartbeat CPU 0 instructions: 44000000 cycles: 24314029 heartbeat IPC: 1.848 cumulative IPC: 1.80965 (Simulation time: 1 hr 1 min 54 sec) 
Heartbeat CPU 0 instructions: 45000001 cycles: 24855218 heartbeat IPC: 1.84779 cumulative IPC: 1.81049 (Simulation time: 1 hr 3 min 14 sec) 
Heartbeat CPU 0 instructions: 46000000 cycles: 25396381 heartbeat IPC: 1.84787 cumulative IPC: 1.81128 (Simulation time: 1 hr 4 min 41 sec) 
Heartbeat CPU 0 instructions: 47000002 cycles: 25937548 heartbeat IPC: 1.84786 cumulative IPC: 1.81204 (Simulation time: 1 hr 6 min 7 sec) 
Heartbeat CPU 0 instructions: 48000000 cycles: 26478712 heartbeat IPC: 1.84786 cumulative IPC: 1.81278 (Simulation time: 1 hr 7 min 31 sec) 
Heartbeat CPU 0 instructions: 49000002 cycles: 27019891 heartbeat IPC: 1.84782 cumulative IPC: 1.81348 (Simulation time: 1 hr 8 min 55 sec) 
Heartbeat CPU 0 instructions: 50000001 cycles: 27561034 heartbeat IPC: 1.84794 cumulative IPC: 1.81416 (Simulation time: 1 hr 10 min 17 sec) 

Warmup complete CPU 0 instructions: 50000001 cycles: 27561034 (Simulation time: 1 hr 10 min 17 sec) 

Heartbeat CPU 0 instructions: 51000002 cycles: 29219044 heartbeat IPC: 0.603133 cumulative IPC: 0.603133 (Simulation time: 1 hr 11 min 50 sec) 
Heartbeat CPU 0 instructions: 52000000 cycles: 31019526 heartbeat IPC: 0.555406 cumulative IPC: 0.578286 (Simulation time: 1 hr 13 min 29 sec) 
Heartbeat CPU 0 instructions: 53000001 cycles: 33095098 heartbeat IPC: 0.481795 cumulative IPC: 0.542097 (Simulation time: 1 hr 15 min 16 sec) 
Heartbeat CPU 0 instructions: 54000001 cycles: 35349333 heartbeat IPC: 0.443609 cumulative IPC: 0.513591 (Simulation time: 1 hr 17 min 6 sec) 
Heartbeat CPU 0 instructions: 55000002 cycles: 37633105 heartbeat IPC: 0.437873 cumulative IPC: 0.496422 (Simulation time: 1 hr 18 min 59 sec) 
Heartbeat CPU 0 instructions: 56000000 cycles: 39934751 heartbeat IPC: 0.434471 cumulative IPC: 0.484899 (Simulation time: 1 hr 20 min 51 sec) 
Heartbeat CPU 0 instructions: 57000000 cycles: 42235442 heartbeat IPC: 0.434652 cumulative IPC: 0.477021 (Simulation time: 1 hr 22 min 42 sec) 
Heartbeat CPU 0 instructions: 58000001 cycles: 44504681 heartbeat IPC: 0.440677 cumulative IPC: 0.472153 (Simulation time: 1 hr 24 min 34 sec) 
Heartbeat CPU 0 instructions: 59000001 cycles: 46297561 heartbeat IPC: 0.557762 cumulative IPC: 0.480345 (Simulation time: 1 hr 26 min 11 sec) 
Heartbeat CPU 0 instructions: 60000000 cycles: 47991597 heartbeat IPC: 0.590306 cumulative IPC: 0.489463 (Simulation time: 1 hr 27 min 45 sec) 
Heartbeat CPU 0 instructions: 61000000 cycles: 49673103 heartbeat IPC: 0.594705 cumulative IPC: 0.497466 (Simulation time: 1 hr 29 min 22 sec) 
Heartbeat CPU 0 instructions: 62000000 cycles: 51352540 heartbeat IPC: 0.595438 cumulative IPC: 0.504382 (Simulation time: 1 hr 30 min 59 sec) 
Heartbeat CPU 0 instructions: 63000003 cycles: 53038057 heartbeat IPC: 0.593292 cumulative IPC: 0.510264 (Simulation time: 1 hr 32 min 31 sec) 
Heartbeat CPU 0 instructions: 64000000 cycles: 54722869 heartbeat IPC: 0.593536 cumulative IPC: 0.515429 (Simulation time: 1 hr 34 min 3 sec) 
Heartbeat CPU 0 instructions: 65000002 cycles: 56407157 heartbeat IPC: 0.593724 cumulative IPC: 0.520001 (Simulation time: 1 hr 35 min 35 sec) 
Heartbeat CPU 0 instructions: 66000002 cycles: 58081794 heartbeat IPC: 0.597144 cumulative IPC: 0.524233 (Simulation time: 1 hr 37 min 8 sec) 
Heartbeat CPU 0 instructions: 67000001 cycles: 59753280 heartbeat IPC: 0.598269 cumulative IPC: 0.528077 (Simulation time: 1 hr 38 min 41 sec) 
Heartbeat CPU 0 instructions: 68000000 cycles: 61427618 heartbeat IPC: 0.59725 cumulative IPC: 0.531497 (Simulation time: 1 hr 40 min 14 sec) 
Heartbeat CPU 0 instructions: 69000000 cycles: 63096611 heartbeat IPC: 0.599164 cumulative IPC: 0.534675 (Simulation time: 1 hr 41 min 53 sec) 
Heartbeat CPU 0 instructions: 70000000 cycles: 64763916 heartbeat IPC: 0.59977 cumulative IPC: 0.537593 (Simulation time: 1 hr 43 min 29 sec) 
Heartbeat CPU 0 instructions: 71000002 cycles: 66432241 heartbeat IPC: 0.599405 cumulative IPC: 0.540246 (Simulation time: 1 hr 45 min 4 sec) 
Heartbeat CPU 0 instructions: 72000000 cycles: 68104686 heartbeat IPC: 0.597926 cumulative IPC: 0.542625 (Simulation time: 1 hr 46 min 33 sec) 
Heartbeat CPU 0 instructions: 73000003 cycles: 69773851 heartbeat IPC: 0.599104 cumulative IPC: 0.544858 (Simulation time: 1 hr 48 min 0 sec) 
Heartbeat CPU 0 instructions: 74000002 cycles: 71450831 heartbeat IPC: 0.596309 cumulative IPC: 0.546824 (Simulation time: 1 hr 49 min 33 sec) 
Heartbeat CPU 0 instructions: 75000003 cycles: 73121493 heartbeat IPC: 0.598566 cumulative IPC: 0.548721 (Simulation time: 1 hr 51 min 5 sec) 
Heartbeat CPU 0 instructions: 76000000 cycles: 74793285 heartbeat IPC: 0.598159 cumulative IPC: 0.550471 (Simulation time: 1 hr 52 min 39 sec) 
Heartbeat CPU 0 instructions: 77000003 cycles: 76464553 heartbeat IPC: 0.59835 cumulative IPC: 0.552108 (Simulation time: 1 hr 54 min 12 sec) 
Heartbeat CPU 0 instructions: 78000000 cycles: 78136616 heartbeat IPC: 0.598062 cumulative IPC: 0.553627 (Simulation time: 1 hr 55 min 42 sec) 
Heartbeat CPU 0 instructions: 79000000 cycles: 79805594 heartbeat IPC: 0.599169 cumulative IPC: 0.555082 (Simulation time: 1 hr 57 min 14 sec) 
Heartbeat CPU 0 instructions: 80000000 cycles: 81477457 heartbeat IPC: 0.598135 cumulative IPC: 0.556417 (Simulation time: 1 hr 58 min 48 sec) 
Heartbeat CPU 0 instructions: 81000000 cycles: 83148254 heartbeat IPC: 0.598517 cumulative IPC: 0.557682 (Simulation time: 2 hr 0 min 17 sec) 
Heartbeat CPU 0 instructions: 82000002 cycles: 84812472 heartbeat IPC: 0.600884 cumulative IPC: 0.558938 (Simulation time: 2 hr 1 min 53 sec) 
Heartbeat CPU 0 instructions: 83000003 cycles: 86475175 heartbeat IPC: 0.601431 cumulative IPC: 0.560137 (Simulation time: 2 hr 3 min 26 sec) 
Heartbeat CPU 0 instructions: 84000000 cycles: 88142047 heartbeat IPC: 0.599924 cumulative IPC: 0.561232 (Simulation time: 2 hr 4 min 53 sec) 
Heartbeat CPU 0 instructions: 85000001 cycles: 89801523 heartbeat IPC: 0.6026 cumulative IPC: 0.562335 (Simulation time: 2 hr 6 min 24 sec) 
Heartbeat CPU 0 instructions: 86000002 cycles: 91470006 heartbeat IPC: 0.599347 cumulative IPC: 0.563301 (Simulation time: 2 hr 7 min 53 sec) 
Heartbeat CPU 0 instructions: 87000003 cycles: 93136008 heartbeat IPC: 0.60024 cumulative IPC: 0.56424 (Simulation time: 2 hr 9 min 21 sec) 
Heartbeat CPU 0 instructions: 88000000 cycles: 94807257 heartbeat IPC: 0.598353 cumulative IPC: 0.565087 (Simulation time: 2 hr 10 min 50 sec) 
Heartbeat CPU 0 instructions: 89000001 cycles: 96470658 heartbeat IPC: 0.601179 cumulative IPC: 0.565959 (Simulation time: 2 hr 12 min 19 sec) 
Heartbeat CPU 0 instructions: 90000002 cycles: 98138107 heartbeat IPC: 0.599719 cumulative IPC: 0.566756 (Simulation time: 2 hr 13 min 51 sec) 
Heartbeat CPU 0 instructions: 91000000 cycles: 99800553 heartbeat IPC: 0.601522 cumulative IPC: 0.567556 (Simulation time: 2 hr 15 min 24 sec) 
Heartbeat CPU 0 instructions: 92000000 cycles: 101467235 heartbeat IPC: 0.599994 cumulative IPC: 0.568288 (Simulation time: 2 hr 16 min 51 sec) 
Heartbeat CPU 0 instructions: 93000003 cycles: 103131888 heartbeat IPC: 0.600728 cumulative IPC: 0.569002 (Simulation time: 2 hr 18 min 20 sec) 
Heartbeat CPU 0 instructions: 94000002 cycles: 104791155 heartbeat IPC: 0.602675 cumulative IPC: 0.569726 (Simulation time: 2 hr 19 min 49 sec) 
Heartbeat CPU 0 instructions: 95000003 cycles: 106457319 heartbeat IPC: 0.600182 cumulative IPC: 0.570369 (Simulation time: 2 hr 21 min 20 sec) 
Heartbeat CPU 0 instructions: 96000000 cycles: 108122018 heartbeat IPC: 0.600707 cumulative IPC: 0.570996 (Simulation time: 2 hr 22 min 51 sec) 
Heartbeat CPU 0 instructions: 97000001 cycles: 109788168 heartbeat IPC: 0.600187 cumulative IPC: 0.571588 (Simulation time: 2 hr 24 min 23 sec) 
Heartbeat CPU 0 instructions: 98000002 cycles: 111454429 heartbeat IPC: 0.600147 cumulative IPC: 0.572155 (Simulation time: 2 hr 25 min 58 sec) 
Heartbeat CPU 0 instructions: 99000003 cycles: 113122294 heartbeat IPC: 0.599569 cumulative IPC: 0.572689 (Simulation time: 2 hr 27 min 31 sec) 
Heartbeat CPU 0 instructions: 100000000 cycles: 114789328 heartbeat IPC: 0.599866 cumulative IPC: 0.573209 (Simulation time: 2 hr 29 min 1 sec) 
Heartbeat CPU 0 instructions: 101000001 cycles: 116450820 heartbeat IPC: 0.601869 cumulative IPC: 0.573744 (Simulation time: 2 hr 30 min 31 sec) 
Heartbeat CPU 0 instructions: 102000002 cycles: 118116699 heartbeat IPC: 0.600284 cumulative IPC: 0.574232 (Simulation time: 2 hr 32 min 2 sec) 
Heartbeat CPU 0 instructions: 103000000 cycles: 119781383 heartbeat IPC: 0.600713 cumulative IPC: 0.57471 (Simulation time: 2 hr 33 min 35 sec) 
Heartbeat CPU 0 instructions: 104000000 cycles: 121440168 heartbeat IPC: 0.602851 cumulative IPC: 0.575208 (Simulation time: 2 hr 35 min 6 sec) 
Heartbeat CPU 0 instructions: 105000003 cycles: 123230797 heartbeat IPC: 0.558465 cumulative IPC: 0.574894 (Simulation time: 2 hr 36 min 43 sec) 
Heartbeat CPU 0 instructions: 106000003 cycles: 127138657 heartbeat IPC: 0.255895 cumulative IPC: 0.562375 (Simulation time: 2 hr 39 min 5 sec) 
Heartbeat CPU 0 instructions: 107000000 cycles: 128939026 heartbeat IPC: 0.55544 cumulative IPC: 0.562252 (Simulation time: 2 hr 40 min 22 sec) 
Heartbeat CPU 0 instructions: 108000000 cycles: 130733670 heartbeat IPC: 0.557214 cumulative IPC: 0.562165 (Simulation time: 2 hr 41 min 42 sec) 
Heartbeat CPU 0 instructions: 109000001 cycles: 132531212 heartbeat IPC: 0.556316 cumulative IPC: 0.562064 (Simulation time: 2 hr 43 min 2 sec) 
Heartbeat CPU 0 instructions: 110000001 cycles: 134323253 heartbeat IPC: 0.558023 cumulative IPC: 0.561997 (Simulation time: 2 hr 44 min 14 sec) 
Heartbeat CPU 0 instructions: 111000000 cycles: 136106255 heartbeat IPC: 0.560851 cumulative IPC: 0.561978 (Simulation time: 2 hr 45 min 32 sec) 
Heartbeat CPU 0 instructions: 112000000 cycles: 137881432 heartbeat IPC: 0.563324 cumulative IPC: 0.561999 (Simulation time: 2 hr 46 min 48 sec) 
Heartbeat CPU 0 instructions: 113000003 cycles: 139650333 heartbeat IPC: 0.565324 cumulative IPC: 0.562052 (Simulation time: 2 hr 47 min 59 sec) 
Heartbeat CPU 0 instructions: 114000003 cycles: 141422241 heartbeat IPC: 0.564363 cumulative IPC: 0.562088 (Simulation time: 2 hr 49 min 19 sec) 
Heartbeat CPU 0 instructions: 115000001 cycles: 143192209 heartbeat IPC: 0.564981 cumulative IPC: 0.562132 (Simulation time: 2 hr 50 min 29 sec) 
Heartbeat CPU 0 instructions: 116000000 cycles: 144965420 heartbeat IPC: 0.563948 cumulative IPC: 0.56216 (Simulation time: 2 hr 51 min 41 sec) 
Heartbeat CPU 0 instructions: 117000001 cycles: 146739787 heartbeat IPC: 0.563582 cumulative IPC: 0.562181 (Simulation time: 2 hr 52 min 56 sec) 
Heartbeat CPU 0 instructions: 118000003 cycles: 148514786 heartbeat IPC: 0.563382 cumulative IPC: 0.562198 (Simulation time: 2 hr 54 min 8 sec) 
Heartbeat CPU 0 instructions: 119000001 cycles: 150290120 heartbeat IPC: 0.563273 cumulative IPC: 0.562214 (Simulation time: 2 hr 55 min 20 sec) 
Heartbeat CPU 0 instructions: 120000000 cycles: 152058618 heartbeat IPC: 0.565451 cumulative IPC: 0.56226 (Simulation time: 2 hr 56 min 36 sec) 
Heartbeat CPU 0 instructions: 121000003 cycles: 153833332 heartbeat IPC: 0.563473 cumulative IPC: 0.562277 (Simulation time: 2 hr 57 min 48 sec) 
Heartbeat CPU 0 instructions: 122000001 cycles: 155605794 heartbeat IPC: 0.564186 cumulative IPC: 0.562303 (Simulation time: 2 hr 58 min 56 sec) 
Heartbeat CPU 0 instructions: 123000003 cycles: 157384834 heartbeat IPC: 0.562102 cumulative IPC: 0.562301 (Simulation time: 3 hr 0 min 5 sec) 
Heartbeat CPU 0 instructions: 124000000 cycles: 159156515 heartbeat IPC: 0.564434 cumulative IPC: 0.562329 (Simulation time: 3 hr 1 min 14 sec) 
Heartbeat CPU 0 instructions: 125000003 cycles: 160926883 heartbeat IPC: 0.564856 cumulative IPC: 0.562363 (Simulation time: 3 hr 2 min 16 sec) 
Heartbeat CPU 0 instructions: 126000000 cycles: 162701266 heartbeat IPC: 0.563574 cumulative IPC: 0.562379 (Simulation time: 3 hr 3 min 15 sec) 
Heartbeat CPU 0 instructions: 127000001 cycles: 164476383 heartbeat IPC: 0.563344 cumulative IPC: 0.562391 (Simulation time: 3 hr 4 min 14 sec) 
Heartbeat CPU 0 instructions: 128000000 cycles: 166248363 heartbeat IPC: 0.56434 cumulative IPC: 0.562416 (Simulation time: 3 hr 5 min 8 sec) 
Heartbeat CPU 0 instructions: 129000001 cycles: 168029608 heartbeat IPC: 0.561406 cumulative IPC: 0.562403 (Simulation time: 3 hr 6 min 4 sec) 
Heartbeat CPU 0 instructions: 130000000 cycles: 169807591 heartbeat IPC: 0.562434 cumulative IPC: 0.562404 (Simulation time: 3 hr 6 min 55 sec) 
Heartbeat CPU 0 instructions: 131000001 cycles: 171581849 heartbeat IPC: 0.563616 cumulative IPC: 0.562419 (Simulation time: 3 hr 7 min 48 sec) 
Heartbeat CPU 0 instructions: 132000000 cycles: 173357471 heartbeat IPC: 0.563182 cumulative IPC: 0.562428 (Simulation time: 3 hr 8 min 40 sec) 
Heartbeat CPU 0 instructions: 133000003 cycles: 175135098 heartbeat IPC: 0.562549 cumulative IPC: 0.562429 (Simulation time: 3 hr 9 min 32 sec) 
Heartbeat CPU 0 instructions: 134000001 cycles: 176911414 heartbeat IPC: 0.562962 cumulative IPC: 0.562436 (Simulation time: 3 hr 10 min 24 sec) 
Heartbeat CPU 0 instructions: 135000003 cycles: 178687664 heartbeat IPC: 0.562985 cumulative IPC: 0.562442 (Simulation time: 3 hr 11 min 14 sec) 
Heartbeat CPU 0 instructions: 136000000 cycles: 180457663 heartbeat IPC: 0.56497 cumulative IPC: 0.562472 (Simulation time: 3 hr 12 min 0 sec) 
Heartbeat CPU 0 instructions: 137000001 cycles: 181656047 heartbeat IPC: 0.834458 cumulative IPC: 0.564587 (Simulation time: 3 hr 12 min 47 sec) 
Heartbeat CPU 0 instructions: 138000000 cycles: 183386695 heartbeat IPC: 0.577818 cumulative IPC: 0.564734 (Simulation time: 3 hr 13 min 40 sec) 
Heartbeat CPU 0 instructions: 139000002 cycles: 186631722 heartbeat IPC: 0.308164 cumulative IPC: 0.5595 (Simulation time: 3 hr 14 min 54 sec) 
Heartbeat CPU 0 instructions: 140000000 cycles: 189808137 heartbeat IPC: 0.31482 cumulative IPC: 0.554709 (Simulation time: 3 hr 16 min 8 sec) 
Heartbeat CPU 0 instructions: 141000003 cycles: 193669647 heartbeat IPC: 0.258967 cumulative IPC: 0.547834 (Simulation time: 3 hr 17 min 31 sec) 
Heartbeat CPU 0 instructions: 142000003 cycles: 196480156 heartbeat IPC: 0.355807 cumulative IPC: 0.544639 (Simulation time: 3 hr 18 min 32 sec) 
Heartbeat CPU 0 instructions: 143000001 cycles: 198324693 heartbeat IPC: 0.54214 cumulative IPC: 0.544612 (Simulation time: 3 hr 19 min 16 sec) 
Heartbeat CPU 0 instructions: 144000000 cycles: 200167361 heartbeat IPC: 0.542691 cumulative IPC: 0.544592 (Simulation time: 3 hr 20 min 1 sec) 
Heartbeat CPU 0 instructions: 145000001 cycles: 202012634 heartbeat IPC: 0.541926 cumulative IPC: 0.544564 (Simulation time: 3 hr 20 min 44 sec) 
Heartbeat CPU 0 instructions: 146000003 cycles: 203843062 heartbeat IPC: 0.546321 cumulative IPC: 0.544582 (Simulation time: 3 hr 21 min 26 sec) 
Heartbeat CPU 0 instructions: 147000003 cycles: 205660133 heartbeat IPC: 0.550336 cumulative IPC: 0.544641 (Simulation time: 3 hr 22 min 8 sec) 
Heartbeat CPU 0 instructions: 148000000 cycles: 207478415 heartbeat IPC: 0.549968 cumulative IPC: 0.544694 (Simulation time: 3 hr 22 min 50 sec) 
Heartbeat CPU 0 instructions: 149000003 cycles: 209292807 heartbeat IPC: 0.55115 cumulative IPC: 0.544759 (Simulation time: 3 hr 23 min 33 sec) 
Heartbeat CPU 0 instructions: 150000003 cycles: 211116935 heartbeat IPC: 0.548207 cumulative IPC: 0.544793 (Simulation time: 3 hr 24 min 9 sec) 
Finished CPU 0 instructions: 100000002 cycles: 183555901 cummulative IPC: 0.544793 (Simulation time: 3 hr 24 min 9 sec) 

ChampSim completed all CPUs

Region of Interest Statistics

CPU 0 cummulative IPC: 0.544793 instructions: 100000002 cycles: 183555901
LLC TOTAL     ACCESS:    3966378  HIT:     992499  MISS:    2973879
LLC LOAD      ACCESS:    1062477  HIT:       4648  MISS:    1057829
LLC RFO       ACCESS:     534380  HIT:          0  MISS:     534380
LLC PREFETCH  ACCESS:    1386780  HIT:       5126  MISS:    1381654
LLC WRITEBACK ACCESS:     982741  HIT:     982725  MISS:         16
