
*** ChampSim Multicore Out-of-Order Simulator ***

Warmup Instructions: 10000000
Simulation Instructions: 100000000
Configuration: 2
Number of CPUs: 1
LLC sets: 2048
LLC ways: 16
Off-chip DRAM Channels: 1 Width: 64-bit Data Rate: 1600 MT/s

CPU 0 runs /datasets/cs240c-wi22-a00-public/data/Assignment2-gz/soplex_66B.trace.gz
CPU 0 L1D next line prefetcher
CPU 0 L2C IP-based stride prefetcher
Heartbeat CPU 0 instructions: 1000003 cycles: 415045 heartbeat IPC: 2.40938 cumulative IPC: 2.40938 (Simulation time: 0 hr 0 min 39 sec) 
Heartbeat CPU 0 instructions: 2000003 cycles: 837178 heartbeat IPC: 2.36892 cumulative IPC: 2.38898 (Simulation time: 0 hr 1 min 16 sec) 
Heartbeat CPU 0 instructions: 3000003 cycles: 1242143 heartbeat IPC: 2.46935 cumulative IPC: 2.41518 (Simulation time: 0 hr 1 min 51 sec) 
Heartbeat CPU 0 instructions: 4000000 cycles: 1626256 heartbeat IPC: 2.60339 cumulative IPC: 2.45964 (Simulation time: 0 hr 2 min 22 sec) 
Heartbeat CPU 0 instructions: 5000000 cycles: 2040643 heartbeat IPC: 2.4132 cumulative IPC: 2.45021 (Simulation time: 0 hr 2 min 55 sec) 
Heartbeat CPU 0 instructions: 6000000 cycles: 2514265 heartbeat IPC: 2.11139 cumulative IPC: 2.38638 (Simulation time: 0 hr 3 min 28 sec) 
Heartbeat CPU 0 instructions: 7000002 cycles: 2886808 heartbeat IPC: 2.68426 cumulative IPC: 2.42482 (Simulation time: 0 hr 4 min 3 sec) 
Heartbeat CPU 0 instructions: 8000000 cycles: 3312550 heartbeat IPC: 2.34884 cumulative IPC: 2.41506 (Simulation time: 0 hr 4 min 42 sec) 
Heartbeat CPU 0 instructions: 9000001 cycles: 3751135 heartbeat IPC: 2.28006 cumulative IPC: 2.39927 (Simulation time: 0 hr 5 min 15 sec) 
Heartbeat CPU 0 instructions: 10000002 cycles: 4163322 heartbeat IPC: 2.42609 cumulative IPC: 2.40193 (Simulation time: 0 hr 5 min 52 sec) 

Warmup complete CPU 0 instructions: 10000002 cycles: 4163322 (Simulation time: 0 hr 5 min 52 sec) 

Heartbeat CPU 0 instructions: 11000001 cycles: 7273756 heartbeat IPC: 0.321498 cumulative IPC: 0.321498 (Simulation time: 0 hr 6 min 35 sec) 
Heartbeat CPU 0 instructions: 12000000 cycles: 8621765 heartbeat IPC: 0.741834 cumulative IPC: 0.448587 (Simulation time: 0 hr 7 min 8 sec) 
Heartbeat CPU 0 instructions: 13000001 cycles: 11240975 heartbeat IPC: 0.381795 cumulative IPC: 0.423869 (Simulation time: 0 hr 7 min 50 sec) 
Heartbeat CPU 0 instructions: 14000002 cycles: 13671868 heartbeat IPC: 0.411372 cumulative IPC: 0.420674 (Simulation time: 0 hr 8 min 31 sec) 
Heartbeat CPU 0 instructions: 15000002 cycles: 16175557 heartbeat IPC: 0.399411 cumulative IPC: 0.416242 (Simulation time: 0 hr 9 min 7 sec) 
Heartbeat CPU 0 instructions: 16000000 cycles: 18955533 heartbeat IPC: 0.359715 cumulative IPC: 0.405619 (Simulation time: 0 hr 9 min 54 sec) 
Heartbeat CPU 0 instructions: 17000001 cycles: 21109189 heartbeat IPC: 0.464327 cumulative IPC: 0.41308 (Simulation time: 0 hr 10 min 45 sec) 
Heartbeat CPU 0 instructions: 18000000 cycles: 23087818 heartbeat IPC: 0.5054 cumulative IPC: 0.422732 (Simulation time: 0 hr 11 min 32 sec) 
Heartbeat CPU 0 instructions: 19000002 cycles: 26433802 heartbeat IPC: 0.298866 cumulative IPC: 0.404122 (Simulation time: 0 hr 12 min 26 sec) 
Heartbeat CPU 0 instructions: 20000000 cycles: 27769264 heartbeat IPC: 0.748803 cumulative IPC: 0.423622 (Simulation time: 0 hr 12 min 56 sec) 
Heartbeat CPU 0 instructions: 21000000 cycles: 29916267 heartbeat IPC: 0.465766 cumulative IPC: 0.427136 (Simulation time: 0 hr 13 min 38 sec) 
Heartbeat CPU 0 instructions: 22000000 cycles: 32494205 heartbeat IPC: 0.387907 cumulative IPC: 0.423566 (Simulation time: 0 hr 14 min 26 sec) 
Heartbeat CPU 0 instructions: 23000000 cycles: 34948310 heartbeat IPC: 0.407481 cumulative IPC: 0.422284 (Simulation time: 0 hr 15 min 6 sec) 
Heartbeat CPU 0 instructions: 24000000 cycles: 37463173 heartbeat IPC: 0.397636 cumulative IPC: 0.420422 (Simulation time: 0 hr 15 min 50 sec) 
Heartbeat CPU 0 instructions: 25000003 cycles: 39648158 heartbeat IPC: 0.45767 cumulative IPC: 0.422716 (Simulation time: 0 hr 16 min 47 sec) 
Heartbeat CPU 0 instructions: 26000001 cycles: 41785907 heartbeat IPC: 0.467781 cumulative IPC: 0.425276 (Simulation time: 0 hr 17 min 36 sec) 
Heartbeat CPU 0 instructions: 27000002 cycles: 45126633 heartbeat IPC: 0.299336 cumulative IPC: 0.415006 (Simulation time: 0 hr 18 min 35 sec) 
Heartbeat CPU 0 instructions: 28000000 cycles: 46463735 heartbeat IPC: 0.747885 cumulative IPC: 0.425528 (Simulation time: 0 hr 19 min 9 sec) 
Heartbeat CPU 0 instructions: 29000002 cycles: 48270640 heartbeat IPC: 0.553434 cumulative IPC: 0.430768 (Simulation time: 0 hr 19 min 48 sec) 
Heartbeat CPU 0 instructions: 30000000 cycles: 51031559 heartbeat IPC: 0.362198 cumulative IPC: 0.426728 (Simulation time: 0 hr 20 min 39 sec) 
Heartbeat CPU 0 instructions: 31000001 cycles: 53527543 heartbeat IPC: 0.400644 cumulative IPC: 0.425409 (Simulation time: 0 hr 21 min 20 sec) 
Heartbeat CPU 0 instructions: 32000000 cycles: 55984308 heartbeat IPC: 0.407039 cumulative IPC: 0.424538 (Simulation time: 0 hr 22 min 0 sec) 
Heartbeat CPU 0 instructions: 33000001 cycles: 59113078 heartbeat IPC: 0.319615 cumulative IPC: 0.418564 (Simulation time: 0 hr 23 min 2 sec) 
Heartbeat CPU 0 instructions: 34000003 cycles: 61112112 heartbeat IPC: 0.500243 cumulative IPC: 0.421431 (Simulation time: 0 hr 23 min 55 sec) 
Heartbeat CPU 0 instructions: 35000003 cycles: 64047898 heartbeat IPC: 0.340624 cumulative IPC: 0.41747 (Simulation time: 0 hr 24 min 45 sec) 
Heartbeat CPU 0 instructions: 36000000 cycles: 65378876 heartbeat IPC: 0.751325 cumulative IPC: 0.424729 (Simulation time: 0 hr 25 min 21 sec) 
Heartbeat CPU 0 instructions: 37000000 cycles: 67915273 heartbeat IPC: 0.39426 cumulative IPC: 0.423516 (Simulation time: 0 hr 26 min 7 sec) 
Heartbeat CPU 0 instructions: 38000001 cycles: 70211677 heartbeat IPC: 0.435464 cumulative IPC: 0.423932 (Simulation time: 0 hr 26 min 56 sec) 
Heartbeat CPU 0 instructions: 39000003 cycles: 72698751 heartbeat IPC: 0.40208 cumulative IPC: 0.423139 (Simulation time: 0 hr 27 min 37 sec) 
Heartbeat CPU 0 instructions: 40000000 cycles: 75405790 heartbeat IPC: 0.369406 cumulative IPC: 0.421097 (Simulation time: 0 hr 28 min 28 sec) 
Heartbeat CPU 0 instructions: 41000001 cycles: 77502737 heartbeat IPC: 0.476884 cumulative IPC: 0.422692 (Simulation time: 0 hr 29 min 24 sec) 
Heartbeat CPU 0 instructions: 42000003 cycles: 79445267 heartbeat IPC: 0.514794 cumulative IPC: 0.425069 (Simulation time: 0 hr 30 min 14 sec) 
Heartbeat CPU 0 instructions: 43000000 cycles: 82790200 heartbeat IPC: 0.298959 cumulative IPC: 0.419704 (Simulation time: 0 hr 31 min 13 sec) 
Heartbeat CPU 0 instructions: 44000000 cycles: 84126407 heartbeat IPC: 0.748387 cumulative IPC: 0.425196 (Simulation time: 0 hr 31 min 47 sec) 
Heartbeat CPU 0 instructions: 45000003 cycles: 86302134 heartbeat IPC: 0.459618 cumulative IPC: 0.426108 (Simulation time: 0 hr 32 min 29 sec) 
Heartbeat CPU 0 instructions: 46000003 cycles: 88899866 heartbeat IPC: 0.384951 cumulative IPC: 0.424846 (Simulation time: 0 hr 33 min 16 sec) 
Heartbeat CPU 0 instructions: 47000001 cycles: 91364666 heartbeat IPC: 0.405712 cumulative IPC: 0.424305 (Simulation time: 0 hr 33 min 58 sec) 
Heartbeat CPU 0 instructions: 48000000 cycles: 93863055 heartbeat IPC: 0.400258 cumulative IPC: 0.423636 (Simulation time: 0 hr 34 min 41 sec) 
Heartbeat CPU 0 instructions: 49000000 cycles: 97247874 heartbeat IPC: 0.295437 cumulative IPC: 0.418974 (Simulation time: 0 hr 35 min 48 sec) 
Heartbeat CPU 0 instructions: 50000003 cycles: 103090384 heartbeat IPC: 0.17116 cumulative IPC: 0.404338 (Simulation time: 0 hr 36 min 55 sec) 
Heartbeat CPU 0 instructions: 51000002 cycles: 105543386 heartbeat IPC: 0.407663 cumulative IPC: 0.404419 (Simulation time: 0 hr 37 min 55 sec) 
Heartbeat CPU 0 instructions: 52000000 cycles: 109552700 heartbeat IPC: 0.249419 cumulative IPC: 0.398522 (Simulation time: 0 hr 38 min 53 sec) 
Heartbeat CPU 0 instructions: 53000003 cycles: 112258360 heartbeat IPC: 0.369597 cumulative IPC: 0.397798 (Simulation time: 0 hr 39 min 49 sec) 
Heartbeat CPU 0 instructions: 54000000 cycles: 114786584 heartbeat IPC: 0.395533 cumulative IPC: 0.397746 (Simulation time: 0 hr 40 min 49 sec) 
Heartbeat CPU 0 instructions: 55000002 cycles: 118459366 heartbeat IPC: 0.272274 cumulative IPC: 0.393714 (Simulation time: 0 hr 41 min 43 sec) 
Heartbeat CPU 0 instructions: 56000000 cycles: 122066916 heartbeat IPC: 0.277196 cumulative IPC: 0.390149 (Simulation time: 0 hr 42 min 42 sec) 
Heartbeat CPU 0 instructions: 57000003 cycles: 124688031 heartbeat IPC: 0.381518 cumulative IPC: 0.389962 (Simulation time: 0 hr 43 min 33 sec) 
Heartbeat CPU 0 instructions: 58000002 cycles: 126901558 heartbeat IPC: 0.451767 cumulative IPC: 0.391076 (Simulation time: 0 hr 44 min 25 sec) 
Heartbeat CPU 0 instructions: 59000002 cycles: 128443685 heartbeat IPC: 0.648455 cumulative IPC: 0.39427 (Simulation time: 0 hr 45 min 18 sec) 
Heartbeat CPU 0 instructions: 60000000 cycles: 129641046 heartbeat IPC: 0.835168 cumulative IPC: 0.398477 (Simulation time: 0 hr 46 min 2 sec) 
Heartbeat CPU 0 instructions: 61000002 cycles: 132394621 heartbeat IPC: 0.363165 cumulative IPC: 0.397719 (Simulation time: 0 hr 47 min 15 sec) 
Heartbeat CPU 0 instructions: 62000002 cycles: 135083234 heartbeat IPC: 0.371939 cumulative IPC: 0.397189 (Simulation time: 0 hr 48 min 38 sec) 
Heartbeat CPU 0 instructions: 63000002 cycles: 137188794 heartbeat IPC: 0.474933 cumulative IPC: 0.39842 (Simulation time: 0 hr 49 min 49 sec) 
Heartbeat CPU 0 instructions: 64000000 cycles: 139603945 heartbeat IPC: 0.414052 cumulative IPC: 0.398699 (Simulation time: 0 hr 50 min 48 sec) 
Heartbeat CPU 0 instructions: 65000000 cycles: 143553265 heartbeat IPC: 0.253208 cumulative IPC: 0.394577 (Simulation time: 0 hr 52 min 3 sec) 
Heartbeat CPU 0 instructions: 66000001 cycles: 144913071 heartbeat IPC: 0.7354 cumulative IPC: 0.397869 (Simulation time: 0 hr 52 min 48 sec) 
Heartbeat CPU 0 instructions: 67000000 cycles: 146263607 heartbeat IPC: 0.740446 cumulative IPC: 0.401125 (Simulation time: 0 hr 53 min 36 sec) 
Heartbeat CPU 0 instructions: 68000000 cycles: 149543567 heartbeat IPC: 0.304882 cumulative IPC: 0.398954 (Simulation time: 0 hr 54 min 45 sec) 
Heartbeat CPU 0 instructions: 69000000 cycles: 152216161 heartbeat IPC: 0.374168 cumulative IPC: 0.398506 (Simulation time: 0 hr 55 min 38 sec) 
Heartbeat CPU 0 instructions: 70000003 cycles: 154726417 heartbeat IPC: 0.398367 cumulative IPC: 0.398504 (Simulation time: 0 hr 56 min 35 sec) 
Heartbeat CPU 0 instructions: 71000000 cycles: 157351724 heartbeat IPC: 0.380907 cumulative IPC: 0.398202 (Simulation time: 0 hr 57 min 53 sec) 
Heartbeat CPU 0 instructions: 72000000 cycles: 159956689 heartbeat IPC: 0.383882 cumulative IPC: 0.397963 (Simulation time: 0 hr 58 min 52 sec) 
Heartbeat CPU 0 instructions: 73000002 cycles: 162803319 heartbeat IPC: 0.351293 cumulative IPC: 0.397126 (Simulation time: 0 hr 59 min 52 sec) 
Heartbeat CPU 0 instructions: 74000000 cycles: 164797370 heartbeat IPC: 0.501491 cumulative IPC: 0.398421 (Simulation time: 1 hr 0 min 29 sec) 
Heartbeat CPU 0 instructions: 75000002 cycles: 166135407 heartbeat IPC: 0.747365 cumulative IPC: 0.401304 (Simulation time: 1 hr 1 min 2 sec) 
Heartbeat CPU 0 instructions: 76000000 cycles: 169280452 heartbeat IPC: 0.31796 cumulative IPC: 0.399716 (Simulation time: 1 hr 1 min 50 sec) 
Heartbeat CPU 0 instructions: 77000000 cycles: 171638073 heartbeat IPC: 0.424156 cumulative IPC: 0.40006 (Simulation time: 1 hr 2 min 27 sec) 
Heartbeat CPU 0 instructions: 78000003 cycles: 174130469 heartbeat IPC: 0.401222 cumulative IPC: 0.400077 (Simulation time: 1 hr 3 min 3 sec) 
Heartbeat CPU 0 instructions: 79000001 cycles: 177226767 heartbeat IPC: 0.322966 cumulative IPC: 0.398698 (Simulation time: 1 hr 3 min 53 sec) 
Heartbeat CPU 0 instructions: 80000000 cycles: 179753978 heartbeat IPC: 0.395693 cumulative IPC: 0.398654 (Simulation time: 1 hr 4 min 35 sec) 
Heartbeat CPU 0 instructions: 81000003 cycles: 182789857 heartbeat IPC: 0.329395 cumulative IPC: 0.397477 (Simulation time: 1 hr 5 min 30 sec) 
Heartbeat CPU 0 instructions: 82000000 cycles: 184540216 heartbeat IPC: 0.57131 cumulative IPC: 0.399164 (Simulation time: 1 hr 6 min 2 sec) 
Heartbeat CPU 0 instructions: 83000001 cycles: 185864344 heartbeat IPC: 0.755215 cumulative IPC: 0.401759 (Simulation time: 1 hr 6 min 33 sec) 
Heartbeat CPU 0 instructions: 84000000 cycles: 188951317 heartbeat IPC: 0.323942 cumulative IPC: 0.400459 (Simulation time: 1 hr 7 min 18 sec) 
Heartbeat CPU 0 instructions: 85000002 cycles: 191282022 heartbeat IPC: 0.429056 cumulative IPC: 0.400815 (Simulation time: 1 hr 7 min 53 sec) 
Heartbeat CPU 0 instructions: 86000000 cycles: 193780712 heartbeat IPC: 0.400209 cumulative IPC: 0.400807 (Simulation time: 1 hr 8 min 25 sec) 
Heartbeat CPU 0 instructions: 87000000 cycles: 196635200 heartbeat IPC: 0.350326 cumulative IPC: 0.400058 (Simulation time: 1 hr 9 min 7 sec) 
Heartbeat CPU 0 instructions: 88000000 cycles: 198844319 heartbeat IPC: 0.452669 cumulative IPC: 0.400655 (Simulation time: 1 hr 9 min 43 sec) 
Heartbeat CPU 0 instructions: 89000001 cycles: 202152446 heartbeat IPC: 0.302286 cumulative IPC: 0.399012 (Simulation time: 1 hr 10 min 26 sec) 
Heartbeat CPU 0 instructions: 90000002 cycles: 203495220 heartbeat IPC: 0.744728 cumulative IPC: 0.401341 (Simulation time: 1 hr 10 min 50 sec) 
Heartbeat CPU 0 instructions: 91000000 cycles: 204905964 heartbeat IPC: 0.708844 cumulative IPC: 0.403502 (Simulation time: 1 hr 11 min 15 sec) 
Heartbeat CPU 0 instructions: 92000000 cycles: 207919178 heartbeat IPC: 0.331872 cumulative IPC: 0.402442 (Simulation time: 1 hr 11 min 50 sec) 
Heartbeat CPU 0 instructions: 93000000 cycles: 210427426 heartbeat IPC: 0.398685 cumulative IPC: 0.402397 (Simulation time: 1 hr 12 min 16 sec) 
Heartbeat CPU 0 instructions: 94000001 cycles: 212829344 heartbeat IPC: 0.416334 cumulative IPC: 0.402557 (Simulation time: 1 hr 12 min 42 sec) 
Heartbeat CPU 0 instructions: 95000003 cycles: 215899597 heartbeat IPC: 0.325707 cumulative IPC: 0.401443 (Simulation time: 1 hr 13 min 20 sec) 
Heartbeat CPU 0 instructions: 96000000 cycles: 217845841 heartbeat IPC: 0.513809 cumulative IPC: 0.402466 (Simulation time: 1 hr 13 min 49 sec) 
Heartbeat CPU 0 instructions: 97000003 cycles: 221025224 heartbeat IPC: 0.314527 cumulative IPC: 0.401177 (Simulation time: 1 hr 14 min 21 sec) 
Heartbeat CPU 0 instructions: 98000003 cycles: 222365587 heartbeat IPC: 0.746067 cumulative IPC: 0.403296 (Simulation time: 1 hr 14 min 39 sec) 
Heartbeat CPU 0 instructions: 99000000 cycles: 224703825 heartbeat IPC: 0.427671 cumulative IPC: 0.403554 (Simulation time: 1 hr 15 min 3 sec) 
Heartbeat CPU 0 instructions: 100000000 cycles: 227215208 heartbeat IPC: 0.398187 cumulative IPC: 0.403494 (Simulation time: 1 hr 15 min 29 sec) 
Heartbeat CPU 0 instructions: 101000001 cycles: 229659953 heartbeat IPC: 0.409041 cumulative IPC: 0.403554 (Simulation time: 1 hr 15 min 50 sec) 
Heartbeat CPU 0 instructions: 102000002 cycles: 232231775 heartbeat IPC: 0.38883 cumulative IPC: 0.403388 (Simulation time: 1 hr 16 min 12 sec) 
Heartbeat CPU 0 instructions: 103000002 cycles: 235241611 heartbeat IPC: 0.332244 cumulative IPC: 0.402461 (Simulation time: 1 hr 16 min 42 sec) 
Heartbeat CPU 0 instructions: 104000000 cycles: 237490380 heartbeat IPC: 0.444687 cumulative IPC: 0.402868 (Simulation time: 1 hr 17 min 8 sec) 
Heartbeat CPU 0 instructions: 105000000 cycles: 239926577 heartbeat IPC: 0.410476 cumulative IPC: 0.402947 (Simulation time: 1 hr 17 min 31 sec) 
Heartbeat CPU 0 instructions: 106000001 cycles: 241253211 heartbeat IPC: 0.753788 cumulative IPC: 0.40491 (Simulation time: 1 hr 17 min 48 sec) 
Heartbeat CPU 0 instructions: 107000001 cycles: 244146544 heartbeat IPC: 0.345622 cumulative IPC: 0.404195 (Simulation time: 1 hr 18 min 13 sec) 
Heartbeat CPU 0 instructions: 108000000 cycles: 246293949 heartbeat IPC: 0.465678 cumulative IPC: 0.40474 (Simulation time: 1 hr 18 min 33 sec) 
Heartbeat CPU 0 instructions: 109000003 cycles: 248748528 heartbeat IPC: 0.407403 cumulative IPC: 0.404767 (Simulation time: 1 hr 18 min 52 sec) 
Heartbeat CPU 0 instructions: 110000001 cycles: 251656833 heartbeat IPC: 0.343842 cumulative IPC: 0.404051 (Simulation time: 1 hr 19 min 18 sec) 
Finished CPU 0 instructions: 100000003 cycles: 247493512 cummulative IPC: 0.404051 (Simulation time: 1 hr 19 min 18 sec) 

ChampSim completed all CPUs

Region of Interest Statistics

CPU 0 cummulative IPC: 0.404051 instructions: 100000003 cycles: 247493512
LLC TOTAL     ACCESS:    6600305  HIT:    3076689  MISS:    3523616
LLC LOAD      ACCESS:    1697149  HIT:     779686  MISS:     917463
LLC RFO       ACCESS:     658481  HIT:     303397  MISS:     355084
LLC PREFETCH  ACCESS:    2684041  HIT:     927382  MISS:    1756659
LLC WRITEBACK ACCESS:    1560634  HIT:    1066224  MISS:     494410
