
*** ChampSim Multicore Out-of-Order Simulator ***

Warmup Instructions: 10000000
Simulation Instructions: 100000000
Configuration: 2
Number of CPUs: 1
LLC sets: 2048
LLC ways: 16
Off-chip DRAM Channels: 1 Width: 64-bit Data Rate: 1600 MT/s

CPU 0 runs /datasets/cs240c-wi22-a00-public/data/Assignment2-gz/gcc_13B.trace.gz
CPU 0 L1D next line prefetcher
CPU 0 L2C IP-based stride prefetcher
Heartbeat CPU 0 instructions: 1000000 cycles: 633311 heartbeat IPC: 1.579 cumulative IPC: 1.579 (Simulation time: 0 hr 0 min 49 sec) 
Heartbeat CPU 0 instructions: 2000001 cycles: 1243580 heartbeat IPC: 1.63862 cumulative IPC: 1.60826 (Simulation time: 0 hr 1 min 37 sec) 
Heartbeat CPU 0 instructions: 3000001 cycles: 1717231 heartbeat IPC: 2.11126 cumulative IPC: 1.747 (Simulation time: 0 hr 2 min 24 sec) 
Heartbeat CPU 0 instructions: 4000000 cycles: 2190603 heartbeat IPC: 2.1125 cumulative IPC: 1.82598 (Simulation time: 0 hr 3 min 9 sec) 
Heartbeat CPU 0 instructions: 5000002 cycles: 2664517 heartbeat IPC: 2.11009 cumulative IPC: 1.87651 (Simulation time: 0 hr 3 min 55 sec) 
Heartbeat CPU 0 instructions: 6000002 cycles: 3138290 heartbeat IPC: 2.11072 cumulative IPC: 1.91187 (Simulation time: 0 hr 4 min 41 sec) 
Heartbeat CPU 0 instructions: 7000001 cycles: 3613657 heartbeat IPC: 2.10364 cumulative IPC: 1.9371 (Simulation time: 0 hr 5 min 27 sec) 
Heartbeat CPU 0 instructions: 8000000 cycles: 4090382 heartbeat IPC: 2.09764 cumulative IPC: 1.95581 (Simulation time: 0 hr 6 min 15 sec) 
Heartbeat CPU 0 instructions: 9000001 cycles: 4831249 heartbeat IPC: 1.34977 cumulative IPC: 1.86287 (Simulation time: 0 hr 7 min 6 sec) 
Heartbeat CPU 0 instructions: 10000001 cycles: 5536161 heartbeat IPC: 1.41862 cumulative IPC: 1.80631 (Simulation time: 0 hr 7 min 56 sec) 

Warmup complete CPU 0 instructions: 10000001 cycles: 5536161 (Simulation time: 0 hr 7 min 56 sec) 

Heartbeat CPU 0 instructions: 11000000 cycles: 12669060 heartbeat IPC: 0.140195 cumulative IPC: 0.140195 (Simulation time: 0 hr 9 min 2 sec) 
Heartbeat CPU 0 instructions: 12000000 cycles: 19161859 heartbeat IPC: 0.154017 cumulative IPC: 0.146781 (Simulation time: 0 hr 10 min 6 sec) 
Heartbeat CPU 0 instructions: 13000000 cycles: 25185004 heartbeat IPC: 0.166026 cumulative IPC: 0.152681 (Simulation time: 0 hr 11 min 9 sec) 
Heartbeat CPU 0 instructions: 14000000 cycles: 30882390 heartbeat IPC: 0.175519 cumulative IPC: 0.157814 (Simulation time: 0 hr 12 min 17 sec) 
Heartbeat CPU 0 instructions: 15000000 cycles: 33663704 heartbeat IPC: 0.359542 cumulative IPC: 0.177762 (Simulation time: 0 hr 13 min 15 sec) 
Heartbeat CPU 0 instructions: 16000000 cycles: 35855985 heartbeat IPC: 0.456146 cumulative IPC: 0.19789 (Simulation time: 0 hr 14 min 6 sec) 
Heartbeat CPU 0 instructions: 17000000 cycles: 38077852 heartbeat IPC: 0.450072 cumulative IPC: 0.215109 (Simulation time: 0 hr 14 min 56 sec) 
Heartbeat CPU 0 instructions: 18000002 cycles: 40293871 heartbeat IPC: 0.451261 cumulative IPC: 0.230165 (Simulation time: 0 hr 15 min 43 sec) 
Heartbeat CPU 0 instructions: 19000002 cycles: 42497151 heartbeat IPC: 0.453869 cumulative IPC: 0.2435 (Simulation time: 0 hr 16 min 31 sec) 
Heartbeat CPU 0 instructions: 20000000 cycles: 44704250 heartbeat IPC: 0.453083 cumulative IPC: 0.25531 (Simulation time: 0 hr 17 min 19 sec) 
Heartbeat CPU 0 instructions: 21000001 cycles: 47124117 heartbeat IPC: 0.413246 cumulative IPC: 0.2645 (Simulation time: 0 hr 18 min 8 sec) 
Heartbeat CPU 0 instructions: 22000001 cycles: 51307960 heartbeat IPC: 0.239015 cumulative IPC: 0.26217 (Simulation time: 0 hr 19 min 11 sec) 
Heartbeat CPU 0 instructions: 23000002 cycles: 58213194 heartbeat IPC: 0.144818 cumulative IPC: 0.246787 (Simulation time: 0 hr 20 min 21 sec) 
Heartbeat CPU 0 instructions: 24000000 cycles: 64970560 heartbeat IPC: 0.147986 cumulative IPC: 0.235554 (Simulation time: 0 hr 21 min 27 sec) 
Heartbeat CPU 0 instructions: 25000000 cycles: 71138195 heartbeat IPC: 0.162137 cumulative IPC: 0.228651 (Simulation time: 0 hr 22 min 30 sec) 
Heartbeat CPU 0 instructions: 26000001 cycles: 76874799 heartbeat IPC: 0.174319 cumulative IPC: 0.224282 (Simulation time: 0 hr 23 min 34 sec) 
Heartbeat CPU 0 instructions: 27000000 cycles: 81995915 heartbeat IPC: 0.19527 cumulative IPC: 0.222339 (Simulation time: 0 hr 24 min 37 sec) 
Heartbeat CPU 0 instructions: 28000000 cycles: 84394938 heartbeat IPC: 0.416836 cumulative IPC: 0.228256 (Simulation time: 0 hr 25 min 33 sec) 
Heartbeat CPU 0 instructions: 29000000 cycles: 86454111 heartbeat IPC: 0.485632 cumulative IPC: 0.234806 (Simulation time: 0 hr 26 min 22 sec) 
Heartbeat CPU 0 instructions: 30000001 cycles: 88513599 heartbeat IPC: 0.485558 cumulative IPC: 0.241029 (Simulation time: 0 hr 27 min 12 sec) 
Heartbeat CPU 0 instructions: 31000000 cycles: 90579797 heartbeat IPC: 0.48398 cumulative IPC: 0.246932 (Simulation time: 0 hr 28 min 0 sec) 
Heartbeat CPU 0 instructions: 32000000 cycles: 92627286 heartbeat IPC: 0.488403 cumulative IPC: 0.252609 (Simulation time: 0 hr 28 min 46 sec) 
Heartbeat CPU 0 instructions: 33000000 cycles: 94681298 heartbeat IPC: 0.486852 cumulative IPC: 0.258006 (Simulation time: 0 hr 29 min 33 sec) 
Heartbeat CPU 0 instructions: 34000000 cycles: 97315424 heartbeat IPC: 0.379633 cumulative IPC: 0.261497 (Simulation time: 0 hr 30 min 24 sec) 
Heartbeat CPU 0 instructions: 35000000 cycles: 111602554 heartbeat IPC: 0.0699931 cumulative IPC: 0.235701 (Simulation time: 0 hr 32 min 26 sec) 
Heartbeat CPU 0 instructions: 36000000 cycles: 115460931 heartbeat IPC: 0.259176 cumulative IPC: 0.236525 (Simulation time: 0 hr 33 min 17 sec) 
Heartbeat CPU 0 instructions: 37000003 cycles: 119306498 heartbeat IPC: 0.26004 cumulative IPC: 0.23732 (Simulation time: 0 hr 34 min 8 sec) 
Heartbeat CPU 0 instructions: 38000000 cycles: 123165674 heartbeat IPC: 0.259122 cumulative IPC: 0.238035 (Simulation time: 0 hr 34 min 56 sec) 
Heartbeat CPU 0 instructions: 39000000 cycles: 126936318 heartbeat IPC: 0.265207 cumulative IPC: 0.238879 (Simulation time: 0 hr 35 min 46 sec) 
Heartbeat CPU 0 instructions: 40000000 cycles: 130610219 heartbeat IPC: 0.27219 cumulative IPC: 0.239858 (Simulation time: 0 hr 36 min 36 sec) 
Heartbeat CPU 0 instructions: 41000000 cycles: 134249410 heartbeat IPC: 0.274786 cumulative IPC: 0.240845 (Simulation time: 0 hr 37 min 25 sec) 
Heartbeat CPU 0 instructions: 42000000 cycles: 137910041 heartbeat IPC: 0.273177 cumulative IPC: 0.24174 (Simulation time: 0 hr 38 min 12 sec) 
Heartbeat CPU 0 instructions: 43000002 cycles: 141574974 heartbeat IPC: 0.272857 cumulative IPC: 0.242578 (Simulation time: 0 hr 38 min 59 sec) 
Heartbeat CPU 0 instructions: 44000000 cycles: 145233876 heartbeat IPC: 0.273305 cumulative IPC: 0.243383 (Simulation time: 0 hr 39 min 48 sec) 
Heartbeat CPU 0 instructions: 45000001 cycles: 148861887 heartbeat IPC: 0.275633 cumulative IPC: 0.244199 (Simulation time: 0 hr 40 min 38 sec) 
Heartbeat CPU 0 instructions: 46000001 cycles: 152467620 heartbeat IPC: 0.277336 cumulative IPC: 0.245012 (Simulation time: 0 hr 41 min 29 sec) 
Heartbeat CPU 0 instructions: 47000001 cycles: 156059729 heartbeat IPC: 0.278388 cumulative IPC: 0.245809 (Simulation time: 0 hr 42 min 18 sec) 
Heartbeat CPU 0 instructions: 48000000 cycles: 159626331 heartbeat IPC: 0.280379 cumulative IPC: 0.246609 (Simulation time: 0 hr 43 min 4 sec) 
Heartbeat CPU 0 instructions: 49000000 cycles: 163209511 heartbeat IPC: 0.279082 cumulative IPC: 0.247347 (Simulation time: 0 hr 43 min 50 sec) 
Heartbeat CPU 0 instructions: 50000003 cycles: 166789991 heartbeat IPC: 0.279293 cumulative IPC: 0.248056 (Simulation time: 0 hr 44 min 38 sec) 
Heartbeat CPU 0 instructions: 51000001 cycles: 170370044 heartbeat IPC: 0.279325 cumulative IPC: 0.248735 (Simulation time: 0 hr 45 min 27 sec) 
Heartbeat CPU 0 instructions: 52000000 cycles: 173936380 heartbeat IPC: 0.2804 cumulative IPC: 0.249406 (Simulation time: 0 hr 46 min 13 sec) 
Heartbeat CPU 0 instructions: 53000001 cycles: 177517506 heartbeat IPC: 0.279242 cumulative IPC: 0.250027 (Simulation time: 0 hr 47 min 4 sec) 
Heartbeat CPU 0 instructions: 54000000 cycles: 181092238 heartbeat IPC: 0.279741 cumulative IPC: 0.250632 (Simulation time: 0 hr 47 min 52 sec) 
Heartbeat CPU 0 instructions: 55000000 cycles: 184675791 heartbeat IPC: 0.279053 cumulative IPC: 0.251201 (Simulation time: 0 hr 48 min 39 sec) 
Heartbeat CPU 0 instructions: 56000000 cycles: 188249474 heartbeat IPC: 0.279823 cumulative IPC: 0.251761 (Simulation time: 0 hr 49 min 29 sec) 
Heartbeat CPU 0 instructions: 57000002 cycles: 191789175 heartbeat IPC: 0.28251 cumulative IPC: 0.252345 (Simulation time: 0 hr 50 min 14 sec) 
Heartbeat CPU 0 instructions: 58000001 cycles: 195334935 heartbeat IPC: 0.282027 cumulative IPC: 0.252899 (Simulation time: 0 hr 51 min 0 sec) 
Heartbeat CPU 0 instructions: 59000003 cycles: 198852995 heartbeat IPC: 0.284248 cumulative IPC: 0.25347 (Simulation time: 0 hr 51 min 49 sec) 
Heartbeat CPU 0 instructions: 60000000 cycles: 202367752 heartbeat IPC: 0.284514 cumulative IPC: 0.254024 (Simulation time: 0 hr 52 min 41 sec) 
Heartbeat CPU 0 instructions: 61000000 cycles: 205878946 heartbeat IPC: 0.284803 cumulative IPC: 0.254564 (Simulation time: 0 hr 53 min 31 sec) 
Heartbeat CPU 0 instructions: 62000003 cycles: 209387041 heartbeat IPC: 0.285056 cumulative IPC: 0.255088 (Simulation time: 0 hr 54 min 20 sec) 
Heartbeat CPU 0 instructions: 63000001 cycles: 212897371 heartbeat IPC: 0.284873 cumulative IPC: 0.255593 (Simulation time: 0 hr 55 min 8 sec) 
Heartbeat CPU 0 instructions: 64000000 cycles: 216427910 heartbeat IPC: 0.283243 cumulative IPC: 0.256056 (Simulation time: 0 hr 56 min 1 sec) 
Heartbeat CPU 0 instructions: 65000000 cycles: 219998956 heartbeat IPC: 0.28003 cumulative IPC: 0.256455 (Simulation time: 0 hr 56 min 54 sec) 
Heartbeat CPU 0 instructions: 66000000 cycles: 223604906 heartbeat IPC: 0.277319 cumulative IPC: 0.2568 (Simulation time: 0 hr 57 min 55 sec) 
Heartbeat CPU 0 instructions: 67000001 cycles: 227369365 heartbeat IPC: 0.265643 cumulative IPC: 0.25695 (Simulation time: 0 hr 58 min 58 sec) 
Heartbeat CPU 0 instructions: 68000000 cycles: 231152137 heartbeat IPC: 0.264356 cumulative IPC: 0.257074 (Simulation time: 1 hr 0 min 0 sec) 
Heartbeat CPU 0 instructions: 69000003 cycles: 234932911 heartbeat IPC: 0.264497 cumulative IPC: 0.257196 (Simulation time: 1 hr 0 min 58 sec) 
Heartbeat CPU 0 instructions: 70000000 cycles: 238756160 heartbeat IPC: 0.261557 cumulative IPC: 0.257268 (Simulation time: 1 hr 1 min 58 sec) 
Heartbeat CPU 0 instructions: 71000002 cycles: 242373442 heartbeat IPC: 0.276451 cumulative IPC: 0.257561 (Simulation time: 1 hr 2 min 54 sec) 
Heartbeat CPU 0 instructions: 72000000 cycles: 245967798 heartbeat IPC: 0.278213 cumulative IPC: 0.25787 (Simulation time: 1 hr 3 min 50 sec) 
Heartbeat CPU 0 instructions: 73000003 cycles: 249559149 heartbeat IPC: 0.278448 cumulative IPC: 0.258172 (Simulation time: 1 hr 4 min 45 sec) 
Heartbeat CPU 0 instructions: 74000000 cycles: 253177444 heartbeat IPC: 0.276372 cumulative IPC: 0.258438 (Simulation time: 1 hr 5 min 39 sec) 
Heartbeat CPU 0 instructions: 75000000 cycles: 256796309 heartbeat IPC: 0.27633 cumulative IPC: 0.258696 (Simulation time: 1 hr 6 min 33 sec) 
Heartbeat CPU 0 instructions: 76000000 cycles: 260428617 heartbeat IPC: 0.275307 cumulative IPC: 0.258933 (Simulation time: 1 hr 7 min 25 sec) 
Heartbeat CPU 0 instructions: 77000000 cycles: 264033531 heartbeat IPC: 0.277399 cumulative IPC: 0.25919 (Simulation time: 1 hr 8 min 12 sec) 
Heartbeat CPU 0 instructions: 78000003 cycles: 267585452 heartbeat IPC: 0.281539 cumulative IPC: 0.259493 (Simulation time: 1 hr 8 min 56 sec) 
Heartbeat CPU 0 instructions: 79000000 cycles: 271164228 heartbeat IPC: 0.279424 cumulative IPC: 0.259762 (Simulation time: 1 hr 9 min 43 sec) 
Heartbeat CPU 0 instructions: 80000000 cycles: 274711832 heartbeat IPC: 0.28188 cumulative IPC: 0.260053 (Simulation time: 1 hr 10 min 29 sec) 
Heartbeat CPU 0 instructions: 81000001 cycles: 278246038 heartbeat IPC: 0.282949 cumulative IPC: 0.26035 (Simulation time: 1 hr 11 min 11 sec) 
Heartbeat CPU 0 instructions: 82000000 cycles: 281783316 heartbeat IPC: 0.282703 cumulative IPC: 0.260636 (Simulation time: 1 hr 11 min 55 sec) 
Heartbeat CPU 0 instructions: 83000003 cycles: 285340707 heartbeat IPC: 0.281106 cumulative IPC: 0.260896 (Simulation time: 1 hr 12 min 35 sec) 
Heartbeat CPU 0 instructions: 84000000 cycles: 288880364 heartbeat IPC: 0.282512 cumulative IPC: 0.261166 (Simulation time: 1 hr 13 min 20 sec) 
Heartbeat CPU 0 instructions: 85000000 cycles: 292414612 heartbeat IPC: 0.282946 cumulative IPC: 0.261435 (Simulation time: 1 hr 14 min 0 sec) 
Heartbeat CPU 0 instructions: 86000001 cycles: 295960173 heartbeat IPC: 0.282043 cumulative IPC: 0.261686 (Simulation time: 1 hr 14 min 38 sec) 
Heartbeat CPU 0 instructions: 87000001 cycles: 299511469 heartbeat IPC: 0.281587 cumulative IPC: 0.261927 (Simulation time: 1 hr 15 min 14 sec) 
Heartbeat CPU 0 instructions: 88000000 cycles: 303052483 heartbeat IPC: 0.282405 cumulative IPC: 0.26217 (Simulation time: 1 hr 15 min 49 sec) 
Heartbeat CPU 0 instructions: 89000003 cycles: 306591704 heartbeat IPC: 0.282549 cumulative IPC: 0.26241 (Simulation time: 1 hr 16 min 23 sec) 
Heartbeat CPU 0 instructions: 90000000 cycles: 310131534 heartbeat IPC: 0.282499 cumulative IPC: 0.262644 (Simulation time: 1 hr 16 min 55 sec) 
Heartbeat CPU 0 instructions: 91000000 cycles: 313659731 heartbeat IPC: 0.283431 cumulative IPC: 0.262882 (Simulation time: 1 hr 17 min 26 sec) 
Heartbeat CPU 0 instructions: 92000000 cycles: 317171745 heartbeat IPC: 0.284737 cumulative IPC: 0.263128 (Simulation time: 1 hr 18 min 0 sec) 
Heartbeat CPU 0 instructions: 93000001 cycles: 320687913 heartbeat IPC: 0.284401 cumulative IPC: 0.263365 (Simulation time: 1 hr 18 min 34 sec) 
Heartbeat CPU 0 instructions: 94000003 cycles: 324193490 heartbeat IPC: 0.28526 cumulative IPC: 0.263606 (Simulation time: 1 hr 19 min 6 sec) 
Heartbeat CPU 0 instructions: 95000002 cycles: 327706173 heartbeat IPC: 0.284682 cumulative IPC: 0.263836 (Simulation time: 1 hr 19 min 36 sec) 
Heartbeat CPU 0 instructions: 96000000 cycles: 331202204 heartbeat IPC: 0.286038 cumulative IPC: 0.264074 (Simulation time: 1 hr 20 min 5 sec) 
Heartbeat CPU 0 instructions: 97000000 cycles: 334693878 heartbeat IPC: 0.286396 cumulative IPC: 0.264311 (Simulation time: 1 hr 20 min 32 sec) 
Heartbeat CPU 0 instructions: 98000000 cycles: 338179407 heartbeat IPC: 0.2869 cumulative IPC: 0.264548 (Simulation time: 1 hr 21 min 0 sec) 
Heartbeat CPU 0 instructions: 99000000 cycles: 341683975 heartbeat IPC: 0.285342 cumulative IPC: 0.264764 (Simulation time: 1 hr 21 min 26 sec) 
Heartbeat CPU 0 instructions: 100000000 cycles: 345222709 heartbeat IPC: 0.282587 cumulative IPC: 0.26495 (Simulation time: 1 hr 21 min 50 sec) 
Heartbeat CPU 0 instructions: 101000003 cycles: 348735907 heartbeat IPC: 0.284642 cumulative IPC: 0.265152 (Simulation time: 1 hr 22 min 14 sec) 
Heartbeat CPU 0 instructions: 102000000 cycles: 352789576 heartbeat IPC: 0.246689 cumulative IPC: 0.264936 (Simulation time: 1 hr 22 min 37 sec) 
Heartbeat CPU 0 instructions: 103000002 cycles: 357129899 heartbeat IPC: 0.230398 cumulative IPC: 0.26451 (Simulation time: 1 hr 22 min 55 sec) 
Heartbeat CPU 0 instructions: 104000000 cycles: 361237398 heartbeat IPC: 0.243457 cumulative IPC: 0.264267 (Simulation time: 1 hr 23 min 14 sec) 
Heartbeat CPU 0 instructions: 105000000 cycles: 365137132 heartbeat IPC: 0.256428 cumulative IPC: 0.264182 (Simulation time: 1 hr 23 min 32 sec) 
Heartbeat CPU 0 instructions: 106000002 cycles: 369028885 heartbeat IPC: 0.256954 cumulative IPC: 0.264104 (Simulation time: 1 hr 23 min 50 sec) 
Heartbeat CPU 0 instructions: 107000001 cycles: 372960988 heartbeat IPC: 0.254317 cumulative IPC: 0.264 (Simulation time: 1 hr 24 min 5 sec) 
Heartbeat CPU 0 instructions: 108000000 cycles: 376776823 heartbeat IPC: 0.262066 cumulative IPC: 0.26398 (Simulation time: 1 hr 24 min 19 sec) 
Heartbeat CPU 0 instructions: 109000000 cycles: 380506415 heartbeat IPC: 0.268126 cumulative IPC: 0.264021 (Simulation time: 1 hr 24 min 31 sec) 
Heartbeat CPU 0 instructions: 110000002 cycles: 384210193 heartbeat IPC: 0.269995 cumulative IPC: 0.264079 (Simulation time: 1 hr 24 min 42 sec) 
Finished CPU 0 instructions: 100000001 cycles: 378674032 cummulative IPC: 0.264079 (Simulation time: 1 hr 24 min 42 sec) 

ChampSim completed all CPUs

Region of Interest Statistics

CPU 0 cummulative IPC: 0.264079 instructions: 100000001 cycles: 378674032
LLC TOTAL     ACCESS:    2540851  HIT:     288613  MISS:    2252238
LLC LOAD      ACCESS:     647889  HIT:      66693  MISS:     581196
LLC RFO       ACCESS:     277489  HIT:      28305  MISS:     249184
LLC PREFETCH  ACCESS:    1132280  HIT:      64371  MISS:    1067909
LLC WRITEBACK ACCESS:     483193  HIT:     129244  MISS:     353949
