
*** ChampSim Multicore Out-of-Order Simulator ***

Warmup Instructions: 10000000
Simulation Instructions: 100000000
Configuration: 2
Number of CPUs: 1
LLC sets: 2048
LLC ways: 16
Off-chip DRAM Channels: 1 Width: 64-bit Data Rate: 1600 MT/s

CPU 0 runs /datasets/cs240c-wi22-a00-public/data/Assignment2-gz/sphinx3_883B.trace.gz
CPU 0 L1D next line prefetcher
CPU 0 L2C IP-based stride prefetcher
Heartbeat CPU 0 instructions: 1000003 cycles: 414403 heartbeat IPC: 2.41312 cumulative IPC: 2.41312 (Simulation time: 0 hr 0 min 44 sec) 
Heartbeat CPU 0 instructions: 2000000 cycles: 823987 heartbeat IPC: 2.44149 cumulative IPC: 2.42722 (Simulation time: 0 hr 1 min 28 sec) 
Heartbeat CPU 0 instructions: 3000003 cycles: 1298906 heartbeat IPC: 2.10563 cumulative IPC: 2.30964 (Simulation time: 0 hr 2 min 10 sec) 
Heartbeat CPU 0 instructions: 4000000 cycles: 1637797 heartbeat IPC: 2.95079 cumulative IPC: 2.44231 (Simulation time: 0 hr 2 min 49 sec) 
Heartbeat CPU 0 instructions: 5000000 cycles: 1992471 heartbeat IPC: 2.81949 cumulative IPC: 2.50945 (Simulation time: 0 hr 3 min 29 sec) 
Heartbeat CPU 0 instructions: 6000003 cycles: 2406859 heartbeat IPC: 2.4132 cumulative IPC: 2.49288 (Simulation time: 0 hr 4 min 13 sec) 
Heartbeat CPU 0 instructions: 7000002 cycles: 2815664 heartbeat IPC: 2.44615 cumulative IPC: 2.48609 (Simulation time: 0 hr 4 min 57 sec) 
Heartbeat CPU 0 instructions: 8000000 cycles: 3292116 heartbeat IPC: 2.09884 cumulative IPC: 2.43005 (Simulation time: 0 hr 5 min 37 sec) 
Heartbeat CPU 0 instructions: 9000001 cycles: 3631118 heartbeat IPC: 2.94984 cumulative IPC: 2.47858 (Simulation time: 0 hr 6 min 16 sec) 
Heartbeat CPU 0 instructions: 10000000 cycles: 3985179 heartbeat IPC: 2.82437 cumulative IPC: 2.5093 (Simulation time: 0 hr 6 min 59 sec) 

Warmup complete CPU 0 instructions: 10000004 cycles: 3985180 (Simulation time: 0 hr 6 min 59 sec) 

Heartbeat CPU 0 instructions: 11000002 cycles: 5504923 heartbeat IPC: 0.658007 cumulative IPC: 0.658005 (Simulation time: 0 hr 7 min 51 sec) 
Heartbeat CPU 0 instructions: 12000000 cycles: 6998337 heartbeat IPC: 0.669605 cumulative IPC: 0.663754 (Simulation time: 0 hr 8 min 41 sec) 
Heartbeat CPU 0 instructions: 13000001 cycles: 8164774 heartbeat IPC: 0.857313 cumulative IPC: 0.717772 (Simulation time: 0 hr 9 min 29 sec) 
Heartbeat CPU 0 instructions: 14000002 cycles: 9089067 heartbeat IPC: 1.08191 cumulative IPC: 0.783716 (Simulation time: 0 hr 10 min 20 sec) 
Heartbeat CPU 0 instructions: 15000000 cycles: 10047333 heartbeat IPC: 1.04355 cumulative IPC: 0.824789 (Simulation time: 0 hr 11 min 7 sec) 
Heartbeat CPU 0 instructions: 16000000 cycles: 11523517 heartbeat IPC: 0.677422 cumulative IPC: 0.795931 (Simulation time: 0 hr 12 min 1 sec) 
Heartbeat CPU 0 instructions: 17000000 cycles: 12974117 heartbeat IPC: 0.68937 cumulative IPC: 0.778735 (Simulation time: 0 hr 12 min 52 sec) 
Heartbeat CPU 0 instructions: 18000002 cycles: 14229552 heartbeat IPC: 0.796538 cumulative IPC: 0.780916 (Simulation time: 0 hr 13 min 40 sec) 
Heartbeat CPU 0 instructions: 19000003 cycles: 15154452 heartbeat IPC: 1.0812 cumulative IPC: 0.805782 (Simulation time: 0 hr 14 min 27 sec) 
Heartbeat CPU 0 instructions: 20000000 cycles: 16045765 heartbeat IPC: 1.12194 cumulative IPC: 0.829147 (Simulation time: 0 hr 15 min 16 sec) 
Heartbeat CPU 0 instructions: 21000000 cycles: 17526825 heartbeat IPC: 0.675192 cumulative IPC: 0.812309 (Simulation time: 0 hr 16 min 7 sec) 
Heartbeat CPU 0 instructions: 22000002 cycles: 19028793 heartbeat IPC: 0.665794 cumulative IPC: 0.797681 (Simulation time: 0 hr 16 min 55 sec) 
Heartbeat CPU 0 instructions: 23000001 cycles: 20486943 heartbeat IPC: 0.6858 cumulative IPC: 0.787794 (Simulation time: 0 hr 17 min 44 sec) 
Heartbeat CPU 0 instructions: 24000000 cycles: 21419493 heartbeat IPC: 1.07233 cumulative IPC: 0.803014 (Simulation time: 0 hr 18 min 30 sec) 
Heartbeat CPU 0 instructions: 25000003 cycles: 22326861 heartbeat IPC: 1.10209 cumulative IPC: 0.817809 (Simulation time: 0 hr 19 min 17 sec) 
Heartbeat CPU 0 instructions: 26000001 cycles: 23528348 heartbeat IPC: 0.8323 cumulative IPC: 0.8187 (Simulation time: 0 hr 20 min 4 sec) 
Heartbeat CPU 0 instructions: 27000000 cycles: 25013933 heartbeat IPC: 0.673135 cumulative IPC: 0.808417 (Simulation time: 0 hr 20 min 55 sec) 
Heartbeat CPU 0 instructions: 28000000 cycles: 26494504 heartbeat IPC: 0.675415 cumulative IPC: 0.799668 (Simulation time: 0 hr 21 min 46 sec) 
Heartbeat CPU 0 instructions: 29000000 cycles: 27524119 heartbeat IPC: 0.971237 cumulative IPC: 0.807173 (Simulation time: 0 hr 22 min 35 sec) 
Heartbeat CPU 0 instructions: 30000002 cycles: 28431156 heartbeat IPC: 1.10249 cumulative IPC: 0.81813 (Simulation time: 0 hr 23 min 23 sec) 
Heartbeat CPU 0 instructions: 31000003 cycles: 29523609 heartbeat IPC: 0.915372 cumulative IPC: 0.82229 (Simulation time: 0 hr 24 min 17 sec) 
Heartbeat CPU 0 instructions: 32000000 cycles: 30995272 heartbeat IPC: 0.679501 cumulative IPC: 0.81451 (Simulation time: 0 hr 25 min 10 sec) 
Heartbeat CPU 0 instructions: 33000000 cycles: 32422142 heartbeat IPC: 0.700835 cumulative IPC: 0.808806 (Simulation time: 0 hr 26 min 2 sec) 
Heartbeat CPU 0 instructions: 34000000 cycles: 33560173 heartbeat IPC: 0.878711 cumulative IPC: 0.811496 (Simulation time: 0 hr 26 min 51 sec) 
Heartbeat CPU 0 instructions: 35000003 cycles: 34467657 heartbeat IPC: 1.10195 cumulative IPC: 0.820143 (Simulation time: 0 hr 27 min 37 sec) 
Heartbeat CPU 0 instructions: 36000000 cycles: 35520755 heartbeat IPC: 0.949576 cumulative IPC: 0.824466 (Simulation time: 0 hr 28 min 23 sec) 
Heartbeat CPU 0 instructions: 37000001 cycles: 37001099 heartbeat IPC: 0.675519 cumulative IPC: 0.817787 (Simulation time: 0 hr 29 min 13 sec) 
Heartbeat CPU 0 instructions: 38000000 cycles: 38431578 heartbeat IPC: 0.699066 cumulative IPC: 0.812857 (Simulation time: 0 hr 30 min 2 sec) 
Heartbeat CPU 0 instructions: 39000003 cycles: 39546754 heartbeat IPC: 0.896722 cumulative IPC: 0.815487 (Simulation time: 0 hr 30 min 48 sec) 
Heartbeat CPU 0 instructions: 40000000 cycles: 40451345 heartbeat IPC: 1.10547 cumulative IPC: 0.82268 (Simulation time: 0 hr 31 min 34 sec) 
Heartbeat CPU 0 instructions: 41000003 cycles: 41492891 heartbeat IPC: 0.960114 cumulative IPC: 0.826497 (Simulation time: 0 hr 32 min 22 sec) 
Heartbeat CPU 0 instructions: 42000000 cycles: 42978118 heartbeat IPC: 0.673296 cumulative IPC: 0.820661 (Simulation time: 0 hr 33 min 14 sec) 
Heartbeat CPU 0 instructions: 43000003 cycles: 44431933 heartbeat IPC: 0.687847 cumulative IPC: 0.815887 (Simulation time: 0 hr 34 min 4 sec) 
Heartbeat CPU 0 instructions: 44000000 cycles: 45486971 heartbeat IPC: 0.94783 cumulative IPC: 0.819242 (Simulation time: 0 hr 34 min 52 sec) 
Heartbeat CPU 0 instructions: 45000002 cycles: 46390788 heartbeat IPC: 1.10642 cumulative IPC: 0.825363 (Simulation time: 0 hr 35 min 40 sec) 
Heartbeat CPU 0 instructions: 46000001 cycles: 47461467 heartbeat IPC: 0.933986 cumulative IPC: 0.828038 (Simulation time: 0 hr 36 min 28 sec) 
Heartbeat CPU 0 instructions: 47000002 cycles: 48928177 heartbeat IPC: 0.681799 cumulative IPC: 0.823265 (Simulation time: 0 hr 37 min 21 sec) 
Heartbeat CPU 0 instructions: 48000000 cycles: 50388446 heartbeat IPC: 0.684804 cumulative IPC: 0.818908 (Simulation time: 0 hr 38 min 15 sec) 
Heartbeat CPU 0 instructions: 49000001 cycles: 51366632 heartbeat IPC: 1.0223 cumulative IPC: 0.823107 (Simulation time: 0 hr 39 min 2 sec) 
Heartbeat CPU 0 instructions: 50000000 cycles: 52268207 heartbeat IPC: 1.10917 cumulative IPC: 0.828448 (Simulation time: 0 hr 39 min 46 sec) 
Heartbeat CPU 0 instructions: 51000003 cycles: 53371309 heartbeat IPC: 0.906537 cumulative IPC: 0.830193 (Simulation time: 0 hr 40 min 36 sec) 
Heartbeat CPU 0 instructions: 52000000 cycles: 54862399 heartbeat IPC: 0.670648 cumulative IPC: 0.825517 (Simulation time: 0 hr 41 min 29 sec) 
Heartbeat CPU 0 instructions: 53000000 cycles: 56558939 heartbeat IPC: 0.589435 cumulative IPC: 0.817898 (Simulation time: 0 hr 42 min 25 sec) 
Heartbeat CPU 0 instructions: 54000003 cycles: 57881529 heartbeat IPC: 0.756094 cumulative IPC: 0.816382 (Simulation time: 0 hr 43 min 15 sec) 
Heartbeat CPU 0 instructions: 55000003 cycles: 58792809 heartbeat IPC: 1.09736 cumulative IPC: 0.821054 (Simulation time: 0 hr 44 min 5 sec) 
Heartbeat CPU 0 instructions: 56000000 cycles: 59693760 heartbeat IPC: 1.10993 cumulative IPC: 0.825725 (Simulation time: 0 hr 45 min 1 sec) 
Heartbeat CPU 0 instructions: 57000002 cycles: 60823299 heartbeat IPC: 0.885319 cumulative IPC: 0.82691 (Simulation time: 0 hr 45 min 59 sec) 
Heartbeat CPU 0 instructions: 58000001 cycles: 61843729 heartbeat IPC: 0.979978 cumulative IPC: 0.829609 (Simulation time: 0 hr 46 min 56 sec) 
Heartbeat CPU 0 instructions: 59000003 cycles: 62743051 heartbeat IPC: 1.11195 cumulative IPC: 0.833931 (Simulation time: 0 hr 47 min 45 sec) 
Heartbeat CPU 0 instructions: 60000000 cycles: 63651477 heartbeat IPC: 1.1008 cumulative IPC: 0.837994 (Simulation time: 0 hr 48 min 28 sec) 
Heartbeat CPU 0 instructions: 61000001 cycles: 64780082 heartbeat IPC: 0.88605 cumulative IPC: 0.838886 (Simulation time: 0 hr 49 min 10 sec) 
Heartbeat CPU 0 instructions: 62000001 cycles: 65661851 heartbeat IPC: 1.13408 cumulative IPC: 0.843106 (Simulation time: 0 hr 49 min 53 sec) 
Heartbeat CPU 0 instructions: 63000003 cycles: 66528881 heartbeat IPC: 1.15336 cumulative IPC: 0.847407 (Simulation time: 0 hr 50 min 40 sec) 
Heartbeat CPU 0 instructions: 64000000 cycles: 67716572 heartbeat IPC: 0.841967 cumulative IPC: 0.847306 (Simulation time: 0 hr 51 min 27 sec) 
Heartbeat CPU 0 instructions: 65000003 cycles: 68588294 heartbeat IPC: 1.14716 cumulative IPC: 0.851352 (Simulation time: 0 hr 52 min 12 sec) 
Heartbeat CPU 0 instructions: 66000002 cycles: 69468000 heartbeat IPC: 1.13674 cumulative IPC: 0.855186 (Simulation time: 0 hr 52 min 54 sec) 
Heartbeat CPU 0 instructions: 67000000 cycles: 70658637 heartbeat IPC: 0.839885 cumulative IPC: 0.854913 (Simulation time: 0 hr 53 min 38 sec) 
Heartbeat CPU 0 instructions: 68000000 cycles: 72160128 heartbeat IPC: 0.666005 cumulative IPC: 0.850752 (Simulation time: 0 hr 54 min 26 sec) 
Heartbeat CPU 0 instructions: 69000003 cycles: 73026662 heartbeat IPC: 1.15403 cumulative IPC: 0.854559 (Simulation time: 0 hr 55 min 10 sec) 
Heartbeat CPU 0 instructions: 70000000 cycles: 73905990 heartbeat IPC: 1.13723 cumulative IPC: 0.858114 (Simulation time: 0 hr 55 min 53 sec) 
Heartbeat CPU 0 instructions: 71000000 cycles: 75029156 heartbeat IPC: 0.89034 cumulative IPC: 0.858623 (Simulation time: 0 hr 56 min 37 sec) 
Heartbeat CPU 0 instructions: 72000000 cycles: 76419039 heartbeat IPC: 0.719485 cumulative IPC: 0.855953 (Simulation time: 0 hr 57 min 24 sec) 
Heartbeat CPU 0 instructions: 73000000 cycles: 77285196 heartbeat IPC: 1.15453 cumulative IPC: 0.859481 (Simulation time: 0 hr 58 min 7 sec) 
Heartbeat CPU 0 instructions: 74000000 cycles: 78166965 heartbeat IPC: 1.13408 cumulative IPC: 0.862745 (Simulation time: 0 hr 58 min 50 sec) 
Heartbeat CPU 0 instructions: 75000000 cycles: 79329508 heartbeat IPC: 0.860183 cumulative IPC: 0.862706 (Simulation time: 0 hr 59 min 36 sec) 
Heartbeat CPU 0 instructions: 76000000 cycles: 80576228 heartbeat IPC: 0.802105 cumulative IPC: 0.861719 (Simulation time: 1 hr 0 min 20 sec) 
Heartbeat CPU 0 instructions: 77000003 cycles: 81454616 heartbeat IPC: 1.13845 cumulative IPC: 0.864857 (Simulation time: 1 hr 1 min 3 sec) 
Heartbeat CPU 0 instructions: 78000000 cycles: 82330503 heartbeat IPC: 1.1417 cumulative IPC: 0.867952 (Simulation time: 1 hr 1 min 47 sec) 
Heartbeat CPU 0 instructions: 79000001 cycles: 83620606 heartbeat IPC: 0.775133 cumulative IPC: 0.866449 (Simulation time: 1 hr 2 min 31 sec) 
Heartbeat CPU 0 instructions: 80000000 cycles: 84742431 heartbeat IPC: 0.891404 cumulative IPC: 0.866795 (Simulation time: 1 hr 3 min 13 sec) 
Heartbeat CPU 0 instructions: 81000000 cycles: 85620965 heartbeat IPC: 1.13826 cumulative IPC: 0.869717 (Simulation time: 1 hr 3 min 51 sec) 
Heartbeat CPU 0 instructions: 82000000 cycles: 86486826 heartbeat IPC: 1.15492 cumulative IPC: 0.87271 (Simulation time: 1 hr 4 min 30 sec) 
Heartbeat CPU 0 instructions: 83000000 cycles: 87876990 heartbeat IPC: 0.71934 cumulative IPC: 0.870168 (Simulation time: 1 hr 5 min 12 sec) 
Heartbeat CPU 0 instructions: 84000000 cycles: 88791081 heartbeat IPC: 1.09398 cumulative IPC: 0.872581 (Simulation time: 1 hr 5 min 51 sec) 
Heartbeat CPU 0 instructions: 85000001 cycles: 89653317 heartbeat IPC: 1.15978 cumulative IPC: 0.875471 (Simulation time: 1 hr 6 min 32 sec) 
Heartbeat CPU 0 instructions: 86000001 cycles: 90696065 heartbeat IPC: 0.959004 cumulative IPC: 0.876476 (Simulation time: 1 hr 7 min 13 sec) 
Heartbeat CPU 0 instructions: 87000000 cycles: 91860133 heartbeat IPC: 0.859055 cumulative IPC: 0.876245 (Simulation time: 1 hr 7 min 51 sec) 
Heartbeat CPU 0 instructions: 88000000 cycles: 92729778 heartbeat IPC: 1.14989 cumulative IPC: 0.878927 (Simulation time: 1 hr 8 min 25 sec) 
Heartbeat CPU 0 instructions: 89000000 cycles: 93585581 heartbeat IPC: 1.16849 cumulative IPC: 0.881692 (Simulation time: 1 hr 8 min 57 sec) 
Heartbeat CPU 0 instructions: 90000000 cycles: 94868907 heartbeat IPC: 0.779225 cumulative IPC: 0.880246 (Simulation time: 1 hr 9 min 31 sec) 
Heartbeat CPU 0 instructions: 91000003 cycles: 96101679 heartbeat IPC: 0.811182 cumulative IPC: 0.879321 (Simulation time: 1 hr 10 min 6 sec) 
Heartbeat CPU 0 instructions: 92000000 cycles: 97054378 heartbeat IPC: 1.04965 cumulative IPC: 0.881065 (Simulation time: 1 hr 10 min 39 sec) 
Heartbeat CPU 0 instructions: 93000000 cycles: 97912469 heartbeat IPC: 1.16538 cumulative IPC: 0.883662 (Simulation time: 1 hr 11 min 13 sec) 
Heartbeat CPU 0 instructions: 94000002 cycles: 98780667 heartbeat IPC: 1.15181 cumulative IPC: 0.886118 (Simulation time: 1 hr 11 min 48 sec) 
Heartbeat CPU 0 instructions: 95000001 cycles: 100116794 heartbeat IPC: 0.748431 cumulative IPC: 0.884204 (Simulation time: 1 hr 12 min 22 sec) 
Heartbeat CPU 0 instructions: 96000000 cycles: 100981475 heartbeat IPC: 1.15649 cumulative IPC: 0.886632 (Simulation time: 1 hr 12 min 52 sec) 
Heartbeat CPU 0 instructions: 97000000 cycles: 101853358 heartbeat IPC: 1.14694 cumulative IPC: 0.888951 (Simulation time: 1 hr 13 min 22 sec) 
Heartbeat CPU 0 instructions: 98000003 cycles: 103019118 heartbeat IPC: 0.857812 cumulative IPC: 0.888584 (Simulation time: 1 hr 13 min 54 sec) 
Heartbeat CPU 0 instructions: 99000000 cycles: 104065288 heartbeat IPC: 0.955865 cumulative IPC: 0.889288 (Simulation time: 1 hr 14 min 24 sec) 
Heartbeat CPU 0 instructions: 100000000 cycles: 104927031 heartbeat IPC: 1.16044 cumulative IPC: 0.891602 (Simulation time: 1 hr 14 min 55 sec) 
Heartbeat CPU 0 instructions: 101000000 cycles: 105796400 heartbeat IPC: 1.15026 cumulative IPC: 0.893811 (Simulation time: 1 hr 15 min 26 sec) 
Heartbeat CPU 0 instructions: 102000003 cycles: 107216734 heartbeat IPC: 0.704062 cumulative IPC: 0.8912 (Simulation time: 1 hr 15 min 58 sec) 
Heartbeat CPU 0 instructions: 103000001 cycles: 108147039 heartbeat IPC: 1.07491 cumulative IPC: 0.892841 (Simulation time: 1 hr 16 min 25 sec) 
Heartbeat CPU 0 instructions: 104000000 cycles: 109004423 heartbeat IPC: 1.16634 cumulative IPC: 0.895074 (Simulation time: 1 hr 16 min 53 sec) 
Heartbeat CPU 0 instructions: 105000002 cycles: 110084630 heartbeat IPC: 0.92575 cumulative IPC: 0.895386 (Simulation time: 1 hr 17 min 22 sec) 
Heartbeat CPU 0 instructions: 106000003 cycles: 111498661 heartbeat IPC: 0.707199 cumulative IPC: 0.892911 (Simulation time: 1 hr 17 min 48 sec) 
Heartbeat CPU 0 instructions: 107000001 cycles: 112369781 heartbeat IPC: 1.14795 cumulative IPC: 0.894961 (Simulation time: 1 hr 18 min 14 sec) 
Heartbeat CPU 0 instructions: 108000000 cycles: 113237340 heartbeat IPC: 1.15266 cumulative IPC: 0.897007 (Simulation time: 1 hr 18 min 42 sec) 
Heartbeat CPU 0 instructions: 109000001 cycles: 114374113 heartbeat IPC: 0.879684 cumulative IPC: 0.896829 (Simulation time: 1 hr 19 min 11 sec) 
Heartbeat CPU 0 instructions: 110000000 cycles: 115709144 heartbeat IPC: 0.749046 cumulative IPC: 0.895063 (Simulation time: 1 hr 19 min 37 sec) 
Finished CPU 0 instructions: 100000000 cycles: 111723965 cummulative IPC: 0.895063 (Simulation time: 1 hr 19 min 37 sec) 

ChampSim completed all CPUs

Region of Interest Statistics

CPU 0 cummulative IPC: 0.895063 instructions: 100000000 cycles: 111723965
LLC TOTAL     ACCESS:    1795866  HIT:     625771  MISS:    1170095
LLC LOAD      ACCESS:     314433  HIT:     270069  MISS:      44364
LLC RFO       ACCESS:      99579  HIT:      87845  MISS:      11734
LLC PREFETCH  ACCESS:    1240440  HIT:     138474  MISS:    1101966
LLC WRITEBACK ACCESS:     141414  HIT:     129383  MISS:      12031
