
*** ChampSim Multicore Out-of-Order Simulator ***

Warmup Instructions: 10000000
Simulation Instructions: 100000000
Configuration: 1
Number of CPUs: 1
LLC sets: 2048
LLC ways: 16
Off-chip DRAM Channels: 1 Width: 64-bit Data Rate: 1600 MT/s

CPU 0 runs /datasets/cs240c-wi22-a00-public/data/Assignment2-gz/zeusmp_600B.trace.gz
Heartbeat CPU 0 instructions: 1000000 cycles: 407507 heartbeat IPC: 2.45395 cumulative IPC: 2.45395 (Simulation time: 0 hr 0 min 18 sec) 
Heartbeat CPU 0 instructions: 2000001 cycles: 814374 heartbeat IPC: 2.45781 cumulative IPC: 2.45588 (Simulation time: 0 hr 0 min 35 sec) 
Heartbeat CPU 0 instructions: 3000003 cycles: 1221893 heartbeat IPC: 2.45388 cumulative IPC: 2.45521 (Simulation time: 0 hr 0 min 53 sec) 
Heartbeat CPU 0 instructions: 4000000 cycles: 1629601 heartbeat IPC: 2.45273 cumulative IPC: 2.45459 (Simulation time: 0 hr 1 min 11 sec) 
Heartbeat CPU 0 instructions: 5000001 cycles: 2037319 heartbeat IPC: 2.45268 cumulative IPC: 2.45421 (Simulation time: 0 hr 1 min 28 sec) 
Heartbeat CPU 0 instructions: 6000000 cycles: 2444583 heartbeat IPC: 2.45541 cumulative IPC: 2.45441 (Simulation time: 0 hr 1 min 46 sec) 
Heartbeat CPU 0 instructions: 7000000 cycles: 2852187 heartbeat IPC: 2.45336 cumulative IPC: 2.45426 (Simulation time: 0 hr 2 min 7 sec) 
Heartbeat CPU 0 instructions: 8000000 cycles: 3259757 heartbeat IPC: 2.45357 cumulative IPC: 2.45417 (Simulation time: 0 hr 2 min 27 sec) 
Heartbeat CPU 0 instructions: 9000003 cycles: 3666904 heartbeat IPC: 2.45612 cumulative IPC: 2.45439 (Simulation time: 0 hr 2 min 44 sec) 
Heartbeat CPU 0 instructions: 10000001 cycles: 4074512 heartbeat IPC: 2.45333 cumulative IPC: 2.45428 (Simulation time: 0 hr 3 min 4 sec) 

Warmup complete CPU 0 instructions: 10000001 cycles: 4074512 (Simulation time: 0 hr 3 min 4 sec) 

Heartbeat CPU 0 instructions: 11000000 cycles: 4947878 heartbeat IPC: 1.14499 cumulative IPC: 1.14499 (Simulation time: 0 hr 3 min 28 sec) 
Heartbeat CPU 0 instructions: 12000000 cycles: 5816210 heartbeat IPC: 1.15163 cumulative IPC: 1.1483 (Simulation time: 0 hr 3 min 49 sec) 
Heartbeat CPU 0 instructions: 13000001 cycles: 6690129 heartbeat IPC: 1.14427 cumulative IPC: 1.14696 (Simulation time: 0 hr 4 min 12 sec) 
Heartbeat CPU 0 instructions: 14000001 cycles: 7567523 heartbeat IPC: 1.13974 cumulative IPC: 1.14514 (Simulation time: 0 hr 4 min 34 sec) 
Heartbeat CPU 0 instructions: 15000003 cycles: 8443838 heartbeat IPC: 1.14114 cumulative IPC: 1.14434 (Simulation time: 0 hr 4 min 54 sec) 
Heartbeat CPU 0 instructions: 16000000 cycles: 9383860 heartbeat IPC: 1.0638 cumulative IPC: 1.13008 (Simulation time: 0 hr 5 min 15 sec) 
Heartbeat CPU 0 instructions: 17000001 cycles: 10379604 heartbeat IPC: 1.00428 cumulative IPC: 1.11021 (Simulation time: 0 hr 5 min 36 sec) 
Heartbeat CPU 0 instructions: 18000003 cycles: 11370526 heartbeat IPC: 1.00916 cumulative IPC: 1.09649 (Simulation time: 0 hr 5 min 57 sec) 
Heartbeat CPU 0 instructions: 19000000 cycles: 12347897 heartbeat IPC: 1.02315 cumulative IPC: 1.08783 (Simulation time: 0 hr 6 min 19 sec) 
Heartbeat CPU 0 instructions: 20000000 cycles: 13328852 heartbeat IPC: 1.01941 cumulative IPC: 1.08057 (Simulation time: 0 hr 6 min 41 sec) 
Heartbeat CPU 0 instructions: 21000002 cycles: 14325373 heartbeat IPC: 1.00349 cumulative IPC: 1.07308 (Simulation time: 0 hr 7 min 2 sec) 
Heartbeat CPU 0 instructions: 22000000 cycles: 15299165 heartbeat IPC: 1.02691 cumulative IPC: 1.06908 (Simulation time: 0 hr 7 min 22 sec) 
Heartbeat CPU 0 instructions: 23000000 cycles: 16279359 heartbeat IPC: 1.02021 cumulative IPC: 1.06515 (Simulation time: 0 hr 7 min 44 sec) 
Heartbeat CPU 0 instructions: 24000000 cycles: 17256821 heartbeat IPC: 1.02306 cumulative IPC: 1.06203 (Simulation time: 0 hr 8 min 5 sec) 
Heartbeat CPU 0 instructions: 25000000 cycles: 18227423 heartbeat IPC: 1.03029 cumulative IPC: 1.05985 (Simulation time: 0 hr 8 min 24 sec) 
Heartbeat CPU 0 instructions: 26000000 cycles: 19202254 heartbeat IPC: 1.02582 cumulative IPC: 1.05766 (Simulation time: 0 hr 8 min 46 sec) 
Heartbeat CPU 0 instructions: 27000003 cycles: 20173066 heartbeat IPC: 1.03007 cumulative IPC: 1.056 (Simulation time: 0 hr 9 min 8 sec) 
Heartbeat CPU 0 instructions: 28000000 cycles: 21169967 heartbeat IPC: 1.00311 cumulative IPC: 1.05291 (Simulation time: 0 hr 9 min 29 sec) 
Heartbeat CPU 0 instructions: 29000000 cycles: 22147695 heartbeat IPC: 1.02278 cumulative IPC: 1.05128 (Simulation time: 0 hr 9 min 53 sec) 
Heartbeat CPU 0 instructions: 30000003 cycles: 23135788 heartbeat IPC: 1.01205 cumulative IPC: 1.04925 (Simulation time: 0 hr 10 min 16 sec) 
Heartbeat CPU 0 instructions: 31000002 cycles: 24126734 heartbeat IPC: 1.00914 cumulative IPC: 1.04727 (Simulation time: 0 hr 10 min 35 sec) 
Heartbeat CPU 0 instructions: 32000000 cycles: 25095747 heartbeat IPC: 1.03198 cumulative IPC: 1.04656 (Simulation time: 0 hr 10 min 56 sec) 
Heartbeat CPU 0 instructions: 33000001 cycles: 26083949 heartbeat IPC: 1.01194 cumulative IPC: 1.04501 (Simulation time: 0 hr 11 min 16 sec) 
Heartbeat CPU 0 instructions: 34000000 cycles: 27067303 heartbeat IPC: 1.01693 cumulative IPC: 1.04381 (Simulation time: 0 hr 11 min 37 sec) 
Heartbeat CPU 0 instructions: 35000003 cycles: 28040397 heartbeat IPC: 1.02765 cumulative IPC: 1.04315 (Simulation time: 0 hr 11 min 57 sec) 
Heartbeat CPU 0 instructions: 36000000 cycles: 29008640 heartbeat IPC: 1.0328 cumulative IPC: 1.04275 (Simulation time: 0 hr 12 min 18 sec) 
Heartbeat CPU 0 instructions: 37000001 cycles: 30000580 heartbeat IPC: 1.00813 cumulative IPC: 1.04142 (Simulation time: 0 hr 12 min 40 sec) 
Heartbeat CPU 0 instructions: 38000000 cycles: 30985443 heartbeat IPC: 1.01537 cumulative IPC: 1.04047 (Simulation time: 0 hr 13 min 0 sec) 
Heartbeat CPU 0 instructions: 39000002 cycles: 31973808 heartbeat IPC: 1.01177 cumulative IPC: 1.03945 (Simulation time: 0 hr 13 min 22 sec) 
Heartbeat CPU 0 instructions: 40000000 cycles: 32945786 heartbeat IPC: 1.02883 cumulative IPC: 1.0391 (Simulation time: 0 hr 13 min 43 sec) 
Heartbeat CPU 0 instructions: 41000002 cycles: 33929804 heartbeat IPC: 1.01624 cumulative IPC: 1.03834 (Simulation time: 0 hr 14 min 4 sec) 
Heartbeat CPU 0 instructions: 42000000 cycles: 34919860 heartbeat IPC: 1.01004 cumulative IPC: 1.03743 (Simulation time: 0 hr 14 min 29 sec) 
Heartbeat CPU 0 instructions: 43000002 cycles: 35902752 heartbeat IPC: 1.01741 cumulative IPC: 1.03682 (Simulation time: 0 hr 14 min 50 sec) 
Heartbeat CPU 0 instructions: 44000000 cycles: 36873768 heartbeat IPC: 1.02985 cumulative IPC: 1.03661 (Simulation time: 0 hr 15 min 12 sec) 
Heartbeat CPU 0 instructions: 45000000 cycles: 37857363 heartbeat IPC: 1.01668 cumulative IPC: 1.03603 (Simulation time: 0 hr 15 min 33 sec) 
Heartbeat CPU 0 instructions: 46000000 cycles: 38836843 heartbeat IPC: 1.02095 cumulative IPC: 1.0356 (Simulation time: 0 hr 15 min 55 sec) 
Heartbeat CPU 0 instructions: 47000003 cycles: 39834004 heartbeat IPC: 1.00285 cumulative IPC: 1.03469 (Simulation time: 0 hr 16 min 15 sec) 
Heartbeat CPU 0 instructions: 48000000 cycles: 40824659 heartbeat IPC: 1.00943 cumulative IPC: 1.03401 (Simulation time: 0 hr 16 min 34 sec) 
Heartbeat CPU 0 instructions: 49000000 cycles: 41798922 heartbeat IPC: 1.02642 cumulative IPC: 1.03381 (Simulation time: 0 hr 16 min 55 sec) 
Heartbeat CPU 0 instructions: 50000001 cycles: 42768220 heartbeat IPC: 1.03168 cumulative IPC: 1.03376 (Simulation time: 0 hr 17 min 16 sec) 
Heartbeat CPU 0 instructions: 51000001 cycles: 43764625 heartbeat IPC: 1.00361 cumulative IPC: 1.033 (Simulation time: 0 hr 17 min 37 sec) 
Heartbeat CPU 0 instructions: 52000000 cycles: 44725290 heartbeat IPC: 1.04094 cumulative IPC: 1.03319 (Simulation time: 0 hr 17 min 57 sec) 
Heartbeat CPU 0 instructions: 53000000 cycles: 45712996 heartbeat IPC: 1.01245 cumulative IPC: 1.0327 (Simulation time: 0 hr 18 min 18 sec) 
Heartbeat CPU 0 instructions: 54000000 cycles: 46703749 heartbeat IPC: 1.00933 cumulative IPC: 1.03216 (Simulation time: 0 hr 18 min 40 sec) 
Heartbeat CPU 0 instructions: 55000001 cycles: 47675339 heartbeat IPC: 1.02924 cumulative IPC: 1.03209 (Simulation time: 0 hr 18 min 59 sec) 
Heartbeat CPU 0 instructions: 56000000 cycles: 48659640 heartbeat IPC: 1.01595 cumulative IPC: 1.03173 (Simulation time: 0 hr 19 min 20 sec) 
Heartbeat CPU 0 instructions: 57000003 cycles: 49649470 heartbeat IPC: 1.01028 cumulative IPC: 1.03127 (Simulation time: 0 hr 19 min 41 sec) 
Heartbeat CPU 0 instructions: 58000001 cycles: 50607801 heartbeat IPC: 1.04348 cumulative IPC: 1.03152 (Simulation time: 0 hr 20 min 4 sec) 
Heartbeat CPU 0 instructions: 59000000 cycles: 51590651 heartbeat IPC: 1.01745 cumulative IPC: 1.03123 (Simulation time: 0 hr 20 min 28 sec) 
Heartbeat CPU 0 instructions: 60000000 cycles: 52582794 heartbeat IPC: 1.00792 cumulative IPC: 1.03075 (Simulation time: 0 hr 20 min 51 sec) 
Heartbeat CPU 0 instructions: 61000003 cycles: 53564670 heartbeat IPC: 1.01846 cumulative IPC: 1.03051 (Simulation time: 0 hr 21 min 11 sec) 
Heartbeat CPU 0 instructions: 62000001 cycles: 54558705 heartbeat IPC: 1.006 cumulative IPC: 1.03003 (Simulation time: 0 hr 21 min 31 sec) 
Heartbeat CPU 0 instructions: 63000000 cycles: 55536840 heartbeat IPC: 1.02235 cumulative IPC: 1.02988 (Simulation time: 0 hr 21 min 51 sec) 
Heartbeat CPU 0 instructions: 64000000 cycles: 56508121 heartbeat IPC: 1.02957 cumulative IPC: 1.02987 (Simulation time: 0 hr 22 min 12 sec) 
Heartbeat CPU 0 instructions: 65000001 cycles: 57506459 heartbeat IPC: 1.00167 cumulative IPC: 1.02935 (Simulation time: 0 hr 22 min 33 sec) 
Heartbeat CPU 0 instructions: 66000000 cycles: 58494832 heartbeat IPC: 1.01176 cumulative IPC: 1.02903 (Simulation time: 0 hr 22 min 54 sec) 
Heartbeat CPU 0 instructions: 67000001 cycles: 59491688 heartbeat IPC: 1.00315 cumulative IPC: 1.02856 (Simulation time: 0 hr 23 min 14 sec) 
Heartbeat CPU 0 instructions: 68000000 cycles: 60470980 heartbeat IPC: 1.02114 cumulative IPC: 1.02843 (Simulation time: 0 hr 23 min 34 sec) 
Heartbeat CPU 0 instructions: 69000002 cycles: 61466576 heartbeat IPC: 1.00443 cumulative IPC: 1.02802 (Simulation time: 0 hr 23 min 55 sec) 
Heartbeat CPU 0 instructions: 70000000 cycles: 62458365 heartbeat IPC: 1.00828 cumulative IPC: 1.02768 (Simulation time: 0 hr 24 min 14 sec) 
Heartbeat CPU 0 instructions: 71000001 cycles: 63453986 heartbeat IPC: 1.0044 cumulative IPC: 1.02729 (Simulation time: 0 hr 24 min 34 sec) 
Heartbeat CPU 0 instructions: 72000000 cycles: 64436508 heartbeat IPC: 1.01779 cumulative IPC: 1.02714 (Simulation time: 0 hr 24 min 55 sec) 
Heartbeat CPU 0 instructions: 73000003 cycles: 65415665 heartbeat IPC: 1.02129 cumulative IPC: 1.02704 (Simulation time: 0 hr 25 min 15 sec) 
Heartbeat CPU 0 instructions: 74000002 cycles: 66405927 heartbeat IPC: 1.00983 cumulative IPC: 1.02677 (Simulation time: 0 hr 25 min 34 sec) 
Heartbeat CPU 0 instructions: 75000003 cycles: 67394435 heartbeat IPC: 1.01163 cumulative IPC: 1.02653 (Simulation time: 0 hr 25 min 55 sec) 
Heartbeat CPU 0 instructions: 76000000 cycles: 68387399 heartbeat IPC: 1.00708 cumulative IPC: 1.02623 (Simulation time: 0 hr 26 min 14 sec) 
Heartbeat CPU 0 instructions: 77000000 cycles: 69363492 heartbeat IPC: 1.02449 cumulative IPC: 1.02621 (Simulation time: 0 hr 26 min 33 sec) 
Heartbeat CPU 0 instructions: 78000003 cycles: 70340184 heartbeat IPC: 1.02387 cumulative IPC: 1.02617 (Simulation time: 0 hr 26 min 58 sec) 
Heartbeat CPU 0 instructions: 79000000 cycles: 71324840 heartbeat IPC: 1.01558 cumulative IPC: 1.02602 (Simulation time: 0 hr 27 min 21 sec) 
Heartbeat CPU 0 instructions: 80000000 cycles: 72314090 heartbeat IPC: 1.01087 cumulative IPC: 1.0258 (Simulation time: 0 hr 27 min 39 sec) 
Heartbeat CPU 0 instructions: 81000002 cycles: 73299411 heartbeat IPC: 1.0149 cumulative IPC: 1.02564 (Simulation time: 0 hr 28 min 2 sec) 
Heartbeat CPU 0 instructions: 82000002 cycles: 74275987 heartbeat IPC: 1.02399 cumulative IPC: 1.02562 (Simulation time: 0 hr 28 min 30 sec) 
Heartbeat CPU 0 instructions: 83000001 cycles: 75257524 heartbeat IPC: 1.01881 cumulative IPC: 1.02553 (Simulation time: 0 hr 28 min 49 sec) 
Heartbeat CPU 0 instructions: 84000000 cycles: 76244394 heartbeat IPC: 1.0133 cumulative IPC: 1.02536 (Simulation time: 0 hr 29 min 9 sec) 
Heartbeat CPU 0 instructions: 85000000 cycles: 77222861 heartbeat IPC: 1.02201 cumulative IPC: 1.02531 (Simulation time: 0 hr 29 min 29 sec) 
Heartbeat CPU 0 instructions: 86000002 cycles: 78192668 heartbeat IPC: 1.03114 cumulative IPC: 1.02539 (Simulation time: 0 hr 29 min 47 sec) 
Heartbeat CPU 0 instructions: 87000000 cycles: 79168872 heartbeat IPC: 1.02437 cumulative IPC: 1.02538 (Simulation time: 0 hr 30 min 7 sec) 
Heartbeat CPU 0 instructions: 88000000 cycles: 80140528 heartbeat IPC: 1.02917 cumulative IPC: 1.02543 (Simulation time: 0 hr 30 min 28 sec) 
Heartbeat CPU 0 instructions: 89000002 cycles: 81107010 heartbeat IPC: 1.03468 cumulative IPC: 1.02554 (Simulation time: 0 hr 30 min 51 sec) 
Heartbeat CPU 0 instructions: 90000002 cycles: 82067143 heartbeat IPC: 1.04152 cumulative IPC: 1.02574 (Simulation time: 0 hr 31 min 15 sec) 
Heartbeat CPU 0 instructions: 91000001 cycles: 83036882 heartbeat IPC: 1.0312 cumulative IPC: 1.02581 (Simulation time: 0 hr 31 min 39 sec) 
Heartbeat CPU 0 instructions: 92000000 cycles: 84025433 heartbeat IPC: 1.01158 cumulative IPC: 1.02563 (Simulation time: 0 hr 32 min 0 sec) 
Heartbeat CPU 0 instructions: 93000000 cycles: 84990053 heartbeat IPC: 1.03668 cumulative IPC: 1.02576 (Simulation time: 0 hr 32 min 21 sec) 
Heartbeat CPU 0 instructions: 94000002 cycles: 85965723 heartbeat IPC: 1.02494 cumulative IPC: 1.02575 (Simulation time: 0 hr 32 min 43 sec) 
Heartbeat CPU 0 instructions: 95000001 cycles: 86944068 heartbeat IPC: 1.02213 cumulative IPC: 1.02571 (Simulation time: 0 hr 33 min 4 sec) 
Heartbeat CPU 0 instructions: 96000000 cycles: 87919944 heartbeat IPC: 1.02472 cumulative IPC: 1.0257 (Simulation time: 0 hr 33 min 26 sec) 
Heartbeat CPU 0 instructions: 97000003 cycles: 88881314 heartbeat IPC: 1.04019 cumulative IPC: 1.02586 (Simulation time: 0 hr 33 min 49 sec) 
Heartbeat CPU 0 instructions: 98000002 cycles: 89850847 heartbeat IPC: 1.03142 cumulative IPC: 1.02592 (Simulation time: 0 hr 34 min 8 sec) 
Heartbeat CPU 0 instructions: 99000000 cycles: 90840415 heartbeat IPC: 1.01054 cumulative IPC: 1.02575 (Simulation time: 0 hr 34 min 31 sec) 
Heartbeat CPU 0 instructions: 100000000 cycles: 91811400 heartbeat IPC: 1.02988 cumulative IPC: 1.02579 (Simulation time: 0 hr 34 min 54 sec) 
Heartbeat CPU 0 instructions: 101000002 cycles: 92778032 heartbeat IPC: 1.03452 cumulative IPC: 1.02589 (Simulation time: 0 hr 35 min 17 sec) 
Heartbeat CPU 0 instructions: 102000002 cycles: 93765832 heartbeat IPC: 1.01235 cumulative IPC: 1.02574 (Simulation time: 0 hr 35 min 38 sec) 
Heartbeat CPU 0 instructions: 103000001 cycles: 94749491 heartbeat IPC: 1.01661 cumulative IPC: 1.02564 (Simulation time: 0 hr 35 min 58 sec) 
Heartbeat CPU 0 instructions: 104000000 cycles: 95731995 heartbeat IPC: 1.01781 cumulative IPC: 1.02556 (Simulation time: 0 hr 36 min 19 sec) 
Heartbeat CPU 0 instructions: 105000001 cycles: 96718316 heartbeat IPC: 1.01387 cumulative IPC: 1.02543 (Simulation time: 0 hr 36 min 40 sec) 
Heartbeat CPU 0 instructions: 106000000 cycles: 97695907 heartbeat IPC: 1.02292 cumulative IPC: 1.02541 (Simulation time: 0 hr 37 min 1 sec) 
Heartbeat CPU 0 instructions: 107000000 cycles: 98672951 heartbeat IPC: 1.0235 cumulative IPC: 1.02539 (Simulation time: 0 hr 37 min 20 sec) 
Heartbeat CPU 0 instructions: 108000000 cycles: 99647128 heartbeat IPC: 1.02651 cumulative IPC: 1.0254 (Simulation time: 0 hr 37 min 39 sec) 
Heartbeat CPU 0 instructions: 109000000 cycles: 100632791 heartbeat IPC: 1.01455 cumulative IPC: 1.02529 (Simulation time: 0 hr 37 min 59 sec) 
Heartbeat CPU 0 instructions: 110000002 cycles: 101621441 heartbeat IPC: 1.01148 cumulative IPC: 1.02515 (Simulation time: 0 hr 38 min 18 sec) 
Finished CPU 0 instructions: 100000001 cycles: 97546929 cummulative IPC: 1.02515 (Simulation time: 0 hr 38 min 18 sec) 

ChampSim completed all CPUs

Region of Interest Statistics

CPU 0 cummulative IPC: 1.02515 instructions: 100000001 cycles: 97546929
LLC TOTAL     ACCESS:     381989  HIT:      52006  MISS:     329983
LLC LOAD      ACCESS:     315489  HIT:       2873  MISS:     312616
LLC RFO       ACCESS:       3447  HIT:          1  MISS:       3446
LLC PREFETCH  ACCESS:          0  HIT:          0  MISS:          0
LLC WRITEBACK ACCESS:      63053  HIT:      49132  MISS:      13921
