
*** ChampSim Multicore Out-of-Order Simulator ***

Warmup Instructions: 10000000
Simulation Instructions: 100000000
Configuration: 1
Number of CPUs: 1
LLC sets: 2048
LLC ways: 16
Off-chip DRAM Channels: 1 Width: 64-bit Data Rate: 1600 MT/s

CPU 0 runs /datasets/cs240c-wi22-a00-public/data/Assignment2-gz/milc_360B.trace.gz
Heartbeat CPU 0 instructions: 1000001 cycles: 549889 heartbeat IPC: 1.81855 cumulative IPC: 1.81855 (Simulation time: 0 hr 0 min 23 sec) 
Heartbeat CPU 0 instructions: 2000003 cycles: 1099779 heartbeat IPC: 1.81855 cumulative IPC: 1.81855 (Simulation time: 0 hr 0 min 46 sec) 
Heartbeat CPU 0 instructions: 3000001 cycles: 1649612 heartbeat IPC: 1.81873 cumulative IPC: 1.81861 (Simulation time: 0 hr 1 min 10 sec) 
Heartbeat CPU 0 instructions: 4000000 cycles: 2199464 heartbeat IPC: 1.81867 cumulative IPC: 1.81862 (Simulation time: 0 hr 1 min 34 sec) 
Heartbeat CPU 0 instructions: 5000002 cycles: 2749347 heartbeat IPC: 1.81857 cumulative IPC: 1.81861 (Simulation time: 0 hr 1 min 58 sec) 
Heartbeat CPU 0 instructions: 6000001 cycles: 3299240 heartbeat IPC: 1.81853 cumulative IPC: 1.8186 (Simulation time: 0 hr 2 min 23 sec) 
Heartbeat CPU 0 instructions: 7000000 cycles: 3849091 heartbeat IPC: 1.81867 cumulative IPC: 1.81861 (Simulation time: 0 hr 2 min 46 sec) 
Heartbeat CPU 0 instructions: 8000000 cycles: 4398930 heartbeat IPC: 1.81871 cumulative IPC: 1.81862 (Simulation time: 0 hr 3 min 10 sec) 
Heartbeat CPU 0 instructions: 9000001 cycles: 4948828 heartbeat IPC: 1.81852 cumulative IPC: 1.81861 (Simulation time: 0 hr 3 min 32 sec) 
Heartbeat CPU 0 instructions: 10000001 cycles: 5498685 heartbeat IPC: 1.81865 cumulative IPC: 1.81862 (Simulation time: 0 hr 3 min 59 sec) 

Warmup complete CPU 0 instructions: 10000001 cycles: 5498685 (Simulation time: 0 hr 3 min 59 sec) 

Heartbeat CPU 0 instructions: 11000001 cycles: 7446882 heartbeat IPC: 0.513295 cumulative IPC: 0.513295 (Simulation time: 0 hr 4 min 28 sec) 
Heartbeat CPU 0 instructions: 12000000 cycles: 9395823 heartbeat IPC: 0.513099 cumulative IPC: 0.513197 (Simulation time: 0 hr 4 min 55 sec) 
Heartbeat CPU 0 instructions: 13000001 cycles: 11334104 heartbeat IPC: 0.515922 cumulative IPC: 0.514102 (Simulation time: 0 hr 5 min 25 sec) 
Heartbeat CPU 0 instructions: 14000001 cycles: 13294006 heartbeat IPC: 0.51023 cumulative IPC: 0.513128 (Simulation time: 0 hr 5 min 51 sec) 
Heartbeat CPU 0 instructions: 15000003 cycles: 15220442 heartbeat IPC: 0.519094 cumulative IPC: 0.514311 (Simulation time: 0 hr 6 min 20 sec) 
Heartbeat CPU 0 instructions: 16000000 cycles: 17159908 heartbeat IPC: 0.515604 cumulative IPC: 0.514526 (Simulation time: 0 hr 6 min 45 sec) 
Heartbeat CPU 0 instructions: 17000003 cycles: 19102936 heartbeat IPC: 0.514662 cumulative IPC: 0.514545 (Simulation time: 0 hr 7 min 10 sec) 
Heartbeat CPU 0 instructions: 18000002 cycles: 21050805 heartbeat IPC: 0.513381 cumulative IPC: 0.514399 (Simulation time: 0 hr 7 min 35 sec) 
Heartbeat CPU 0 instructions: 19000000 cycles: 23013597 heartbeat IPC: 0.509477 cumulative IPC: 0.513848 (Simulation time: 0 hr 8 min 1 sec) 
Heartbeat CPU 0 instructions: 20000000 cycles: 24983804 heartbeat IPC: 0.507561 cumulative IPC: 0.513212 (Simulation time: 0 hr 8 min 26 sec) 
Heartbeat CPU 0 instructions: 21000002 cycles: 26903197 heartbeat IPC: 0.520999 cumulative IPC: 0.51391 (Simulation time: 0 hr 8 min 53 sec) 
Heartbeat CPU 0 instructions: 22000003 cycles: 28862722 heartbeat IPC: 0.510328 cumulative IPC: 0.51361 (Simulation time: 0 hr 9 min 18 sec) 
Heartbeat CPU 0 instructions: 23000001 cycles: 30791571 heartbeat IPC: 0.518443 cumulative IPC: 0.513979 (Simulation time: 0 hr 9 min 44 sec) 
Heartbeat CPU 0 instructions: 24000000 cycles: 32756949 heartbeat IPC: 0.508807 cumulative IPC: 0.513606 (Simulation time: 0 hr 10 min 10 sec) 
Heartbeat CPU 0 instructions: 25000003 cycles: 34697661 heartbeat IPC: 0.515276 cumulative IPC: 0.513717 (Simulation time: 0 hr 10 min 40 sec) 
Heartbeat CPU 0 instructions: 26000003 cycles: 36618949 heartbeat IPC: 0.520484 cumulative IPC: 0.514135 (Simulation time: 0 hr 11 min 8 sec) 
Heartbeat CPU 0 instructions: 27000001 cycles: 38547243 heartbeat IPC: 0.518592 cumulative IPC: 0.514395 (Simulation time: 0 hr 11 min 38 sec) 
Heartbeat CPU 0 instructions: 28000000 cycles: 40467459 heartbeat IPC: 0.520774 cumulative IPC: 0.514745 (Simulation time: 0 hr 12 min 4 sec) 
Heartbeat CPU 0 instructions: 29000003 cycles: 42419599 heartbeat IPC: 0.51226 cumulative IPC: 0.514614 (Simulation time: 0 hr 12 min 30 sec) 
Heartbeat CPU 0 instructions: 30000000 cycles: 44340199 heartbeat IPC: 0.520669 cumulative IPC: 0.514913 (Simulation time: 0 hr 12 min 57 sec) 
Heartbeat CPU 0 instructions: 31000000 cycles: 46278327 heartbeat IPC: 0.515962 cumulative IPC: 0.514963 (Simulation time: 0 hr 13 min 24 sec) 
Heartbeat CPU 0 instructions: 32000000 cycles: 48198292 heartbeat IPC: 0.520843 cumulative IPC: 0.515227 (Simulation time: 0 hr 13 min 51 sec) 
Heartbeat CPU 0 instructions: 33000000 cycles: 50130091 heartbeat IPC: 0.517652 cumulative IPC: 0.515332 (Simulation time: 0 hr 14 min 16 sec) 
Heartbeat CPU 0 instructions: 34000002 cycles: 52042078 heartbeat IPC: 0.523017 cumulative IPC: 0.515648 (Simulation time: 0 hr 14 min 45 sec) 
Heartbeat CPU 0 instructions: 35000001 cycles: 53975473 heartbeat IPC: 0.517224 cumulative IPC: 0.515711 (Simulation time: 0 hr 15 min 14 sec) 
Heartbeat CPU 0 instructions: 36000000 cycles: 55896853 heartbeat IPC: 0.520459 cumulative IPC: 0.515892 (Simulation time: 0 hr 15 min 40 sec) 
Heartbeat CPU 0 instructions: 37000000 cycles: 57828133 heartbeat IPC: 0.517791 cumulative IPC: 0.515962 (Simulation time: 0 hr 16 min 9 sec) 
Heartbeat CPU 0 instructions: 38000001 cycles: 59761328 heartbeat IPC: 0.517279 cumulative IPC: 0.516009 (Simulation time: 0 hr 16 min 35 sec) 
Heartbeat CPU 0 instructions: 39000000 cycles: 61695523 heartbeat IPC: 0.51701 cumulative IPC: 0.516043 (Simulation time: 0 hr 17 min 1 sec) 
Heartbeat CPU 0 instructions: 40000000 cycles: 63622597 heartbeat IPC: 0.518921 cumulative IPC: 0.516139 (Simulation time: 0 hr 17 min 27 sec) 
Heartbeat CPU 0 instructions: 41000001 cycles: 65571451 heartbeat IPC: 0.513123 cumulative IPC: 0.516041 (Simulation time: 0 hr 17 min 55 sec) 
Heartbeat CPU 0 instructions: 42000001 cycles: 67495329 heartbeat IPC: 0.519783 cumulative IPC: 0.516157 (Simulation time: 0 hr 18 min 23 sec) 
Heartbeat CPU 0 instructions: 43000000 cycles: 69417313 heartbeat IPC: 0.520295 cumulative IPC: 0.516281 (Simulation time: 0 hr 18 min 49 sec) 
Heartbeat CPU 0 instructions: 44000000 cycles: 72249814 heartbeat IPC: 0.353045 cumulative IPC: 0.509355 (Simulation time: 0 hr 19 min 19 sec) 
Heartbeat CPU 0 instructions: 45000002 cycles: 75781515 heartbeat IPC: 0.28315 cumulative IPC: 0.497988 (Simulation time: 0 hr 19 min 51 sec) 
Heartbeat CPU 0 instructions: 46000001 cycles: 79297107 heartbeat IPC: 0.284447 cumulative IPC: 0.487815 (Simulation time: 0 hr 20 min 24 sec) 
Heartbeat CPU 0 instructions: 47000002 cycles: 82857011 heartbeat IPC: 0.280907 cumulative IPC: 0.478294 (Simulation time: 0 hr 20 min 57 sec) 
Heartbeat CPU 0 instructions: 48000000 cycles: 86354283 heartbeat IPC: 0.285937 cumulative IPC: 0.469974 (Simulation time: 0 hr 21 min 29 sec) 
Heartbeat CPU 0 instructions: 49000003 cycles: 89792612 heartbeat IPC: 0.29084 cumulative IPC: 0.462667 (Simulation time: 0 hr 22 min 1 sec) 
Heartbeat CPU 0 instructions: 50000002 cycles: 92841720 heartbeat IPC: 0.327964 cumulative IPC: 0.457964 (Simulation time: 0 hr 22 min 33 sec) 
Heartbeat CPU 0 instructions: 51000002 cycles: 94810628 heartbeat IPC: 0.507896 cumulative IPC: 0.459065 (Simulation time: 0 hr 22 min 58 sec) 
Heartbeat CPU 0 instructions: 52000000 cycles: 97424720 heartbeat IPC: 0.382541 cumulative IPC: 0.456889 (Simulation time: 0 hr 23 min 24 sec) 
Heartbeat CPU 0 instructions: 53000001 cycles: 100366741 heartbeat IPC: 0.339903 cumulative IPC: 0.453261 (Simulation time: 0 hr 23 min 51 sec) 
Heartbeat CPU 0 instructions: 54000003 cycles: 103268056 heartbeat IPC: 0.344672 cumulative IPC: 0.450039 (Simulation time: 0 hr 24 min 17 sec) 
Heartbeat CPU 0 instructions: 55000003 cycles: 106155598 heartbeat IPC: 0.346315 cumulative IPC: 0.447063 (Simulation time: 0 hr 24 min 44 sec) 
Heartbeat CPU 0 instructions: 56000000 cycles: 109036892 heartbeat IPC: 0.347065 cumulative IPC: 0.44428 (Simulation time: 0 hr 25 min 10 sec) 
Heartbeat CPU 0 instructions: 57000000 cycles: 111929973 heartbeat IPC: 0.345652 cumulative IPC: 0.441599 (Simulation time: 0 hr 25 min 36 sec) 
Heartbeat CPU 0 instructions: 58000001 cycles: 114805071 heartbeat IPC: 0.347815 cumulative IPC: 0.439133 (Simulation time: 0 hr 26 min 2 sec) 
Heartbeat CPU 0 instructions: 59000001 cycles: 117694287 heartbeat IPC: 0.346115 cumulative IPC: 0.436737 (Simulation time: 0 hr 26 min 28 sec) 
Heartbeat CPU 0 instructions: 60000000 cycles: 120577695 heartbeat IPC: 0.346811 cumulative IPC: 0.434484 (Simulation time: 0 hr 26 min 54 sec) 
Heartbeat CPU 0 instructions: 61000002 cycles: 123462070 heartbeat IPC: 0.346696 cumulative IPC: 0.432338 (Simulation time: 0 hr 27 min 21 sec) 
Heartbeat CPU 0 instructions: 62000003 cycles: 126334902 heartbeat IPC: 0.348089 cumulative IPC: 0.430335 (Simulation time: 0 hr 27 min 47 sec) 
Heartbeat CPU 0 instructions: 63000000 cycles: 129232163 heartbeat IPC: 0.345153 cumulative IPC: 0.42834 (Simulation time: 0 hr 28 min 18 sec) 
Heartbeat CPU 0 instructions: 64000000 cycles: 132109255 heartbeat IPC: 0.347573 cumulative IPC: 0.426505 (Simulation time: 0 hr 28 min 43 sec) 
Heartbeat CPU 0 instructions: 65000000 cycles: 134983736 heartbeat IPC: 0.347889 cumulative IPC: 0.424759 (Simulation time: 0 hr 29 min 8 sec) 
Heartbeat CPU 0 instructions: 66000001 cycles: 137857722 heartbeat IPC: 0.347949 cumulative IPC: 0.423092 (Simulation time: 0 hr 29 min 32 sec) 
Heartbeat CPU 0 instructions: 67000002 cycles: 140721792 heartbeat IPC: 0.349154 cumulative IPC: 0.421526 (Simulation time: 0 hr 29 min 59 sec) 
Heartbeat CPU 0 instructions: 68000000 cycles: 143577442 heartbeat IPC: 0.350182 cumulative IPC: 0.42005 (Simulation time: 0 hr 30 min 26 sec) 
Heartbeat CPU 0 instructions: 69000003 cycles: 146411808 heartbeat IPC: 0.352814 cumulative IPC: 0.418698 (Simulation time: 0 hr 30 min 51 sec) 
Heartbeat CPU 0 instructions: 70000000 cycles: 149261681 heartbeat IPC: 0.350892 cumulative IPC: 0.417354 (Simulation time: 0 hr 31 min 17 sec) 
Heartbeat CPU 0 instructions: 71000000 cycles: 152099825 heartbeat IPC: 0.352343 cumulative IPC: 0.416095 (Simulation time: 0 hr 31 min 45 sec) 
Heartbeat CPU 0 instructions: 72000000 cycles: 154913426 heartbeat IPC: 0.355416 cumulative IPC: 0.414952 (Simulation time: 0 hr 32 min 12 sec) 
Heartbeat CPU 0 instructions: 73000001 cycles: 157693869 heartbeat IPC: 0.359655 cumulative IPC: 0.413942 (Simulation time: 0 hr 32 min 40 sec) 
Heartbeat CPU 0 instructions: 74000002 cycles: 159695131 heartbeat IPC: 0.499685 cumulative IPC: 0.415055 (Simulation time: 0 hr 33 min 5 sec) 
Heartbeat CPU 0 instructions: 75000002 cycles: 161674550 heartbeat IPC: 0.505199 cumulative IPC: 0.416197 (Simulation time: 0 hr 33 min 32 sec) 
Heartbeat CPU 0 instructions: 76000000 cycles: 163641678 heartbeat IPC: 0.508354 cumulative IPC: 0.417344 (Simulation time: 0 hr 33 min 59 sec) 
Heartbeat CPU 0 instructions: 77000000 cycles: 165616669 heartbeat IPC: 0.506331 cumulative IPC: 0.418441 (Simulation time: 0 hr 34 min 25 sec) 
Heartbeat CPU 0 instructions: 78000002 cycles: 167618488 heartbeat IPC: 0.499547 cumulative IPC: 0.419443 (Simulation time: 0 hr 34 min 52 sec) 
Heartbeat CPU 0 instructions: 79000002 cycles: 169619747 heartbeat IPC: 0.499685 cumulative IPC: 0.420421 (Simulation time: 0 hr 35 min 19 sec) 
Heartbeat CPU 0 instructions: 80000000 cycles: 171628613 heartbeat IPC: 0.497792 cumulative IPC: 0.421357 (Simulation time: 0 hr 35 min 46 sec) 
Heartbeat CPU 0 instructions: 81000003 cycles: 173623826 heartbeat IPC: 0.501201 cumulative IPC: 0.422304 (Simulation time: 0 hr 36 min 11 sec) 
Heartbeat CPU 0 instructions: 82000000 cycles: 175638657 heartbeat IPC: 0.496318 cumulative IPC: 0.423181 (Simulation time: 0 hr 36 min 36 sec) 
Heartbeat CPU 0 instructions: 83000002 cycles: 177679350 heartbeat IPC: 0.490031 cumulative IPC: 0.423973 (Simulation time: 0 hr 37 min 2 sec) 
Heartbeat CPU 0 instructions: 84000000 cycles: 179717803 heartbeat IPC: 0.490567 cumulative IPC: 0.424752 (Simulation time: 0 hr 37 min 27 sec) 
Heartbeat CPU 0 instructions: 85000001 cycles: 181734809 heartbeat IPC: 0.495785 cumulative IPC: 0.425565 (Simulation time: 0 hr 37 min 50 sec) 
Heartbeat CPU 0 instructions: 86000000 cycles: 183769698 heartbeat IPC: 0.491427 cumulative IPC: 0.426317 (Simulation time: 0 hr 38 min 13 sec) 
Heartbeat CPU 0 instructions: 87000000 cycles: 185789320 heartbeat IPC: 0.495142 cumulative IPC: 0.427088 (Simulation time: 0 hr 38 min 36 sec) 
Heartbeat CPU 0 instructions: 88000000 cycles: 187824951 heartbeat IPC: 0.491248 cumulative IPC: 0.427804 (Simulation time: 0 hr 38 min 57 sec) 
Heartbeat CPU 0 instructions: 89000002 cycles: 189876025 heartbeat IPC: 0.48755 cumulative IPC: 0.428469 (Simulation time: 0 hr 39 min 19 sec) 
Heartbeat CPU 0 instructions: 90000002 cycles: 191912897 heartbeat IPC: 0.490949 cumulative IPC: 0.429152 (Simulation time: 0 hr 39 min 44 sec) 
Heartbeat CPU 0 instructions: 91000003 cycles: 193954774 heartbeat IPC: 0.489746 cumulative IPC: 0.429808 (Simulation time: 0 hr 40 min 7 sec) 
Heartbeat CPU 0 instructions: 92000000 cycles: 195992436 heartbeat IPC: 0.490757 cumulative IPC: 0.43046 (Simulation time: 0 hr 40 min 27 sec) 
Heartbeat CPU 0 instructions: 93000003 cycles: 198025631 heartbeat IPC: 0.491838 cumulative IPC: 0.431109 (Simulation time: 0 hr 40 min 49 sec) 
Heartbeat CPU 0 instructions: 94000001 cycles: 200047724 heartbeat IPC: 0.494536 cumulative IPC: 0.431768 (Simulation time: 0 hr 41 min 10 sec) 
Heartbeat CPU 0 instructions: 95000000 cycles: 202072965 heartbeat IPC: 0.493768 cumulative IPC: 0.432407 (Simulation time: 0 hr 41 min 32 sec) 
Heartbeat CPU 0 instructions: 96000000 cycles: 204095864 heartbeat IPC: 0.49434 cumulative IPC: 0.433037 (Simulation time: 0 hr 41 min 52 sec) 
Heartbeat CPU 0 instructions: 97000002 cycles: 206124472 heartbeat IPC: 0.49295 cumulative IPC: 0.433643 (Simulation time: 0 hr 42 min 11 sec) 
Heartbeat CPU 0 instructions: 98000003 cycles: 208160567 heartbeat IPC: 0.491137 cumulative IPC: 0.434221 (Simulation time: 0 hr 42 min 33 sec) 
Heartbeat CPU 0 instructions: 99000000 cycles: 210194052 heartbeat IPC: 0.491765 cumulative IPC: 0.434792 (Simulation time: 0 hr 42 min 51 sec) 
Heartbeat CPU 0 instructions: 100000000 cycles: 212237789 heartbeat IPC: 0.4893 cumulative IPC: 0.435331 (Simulation time: 0 hr 43 min 8 sec) 
Heartbeat CPU 0 instructions: 101000000 cycles: 214261223 heartbeat IPC: 0.494209 cumulative IPC: 0.435902 (Simulation time: 0 hr 43 min 25 sec) 
Heartbeat CPU 0 instructions: 102000000 cycles: 216282531 heartbeat IPC: 0.494729 cumulative IPC: 0.436466 (Simulation time: 0 hr 43 min 41 sec) 
Heartbeat CPU 0 instructions: 103000002 cycles: 218310659 heartbeat IPC: 0.493067 cumulative IPC: 0.437005 (Simulation time: 0 hr 43 min 57 sec) 
Heartbeat CPU 0 instructions: 104000000 cycles: 220358981 heartbeat IPC: 0.488204 cumulative IPC: 0.437494 (Simulation time: 0 hr 44 min 13 sec) 
Heartbeat CPU 0 instructions: 105000003 cycles: 222405042 heartbeat IPC: 0.488745 cumulative IPC: 0.437977 (Simulation time: 0 hr 44 min 28 sec) 
Heartbeat CPU 0 instructions: 106000002 cycles: 224438475 heartbeat IPC: 0.491779 cumulative IPC: 0.438477 (Simulation time: 0 hr 44 min 43 sec) 
Heartbeat CPU 0 instructions: 107000000 cycles: 226485402 heartbeat IPC: 0.488536 cumulative IPC: 0.43894 (Simulation time: 0 hr 44 min 58 sec) 
Heartbeat CPU 0 instructions: 108000000 cycles: 228508390 heartbeat IPC: 0.494318 cumulative IPC: 0.439443 (Simulation time: 0 hr 45 min 13 sec) 
Heartbeat CPU 0 instructions: 109000002 cycles: 230525399 heartbeat IPC: 0.495785 cumulative IPC: 0.439948 (Simulation time: 0 hr 45 min 28 sec) 
Heartbeat CPU 0 instructions: 110000000 cycles: 232549922 heartbeat IPC: 0.493943 cumulative IPC: 0.440429 (Simulation time: 0 hr 45 min 42 sec) 
Finished CPU 0 instructions: 100000003 cycles: 227051238 cummulative IPC: 0.440429 (Simulation time: 0 hr 45 min 42 sec) 

ChampSim completed all CPUs

Region of Interest Statistics

CPU 0 cummulative IPC: 0.440429 instructions: 100000003 cycles: 227051238
LLC TOTAL     ACCESS:    2838711  HIT:     280733  MISS:    2557978
LLC LOAD      ACCESS:    1956031  HIT:      14340  MISS:    1941691
LLC RFO       ACCESS:     140009  HIT:          0  MISS:     140009
LLC PREFETCH  ACCESS:          0  HIT:          0  MISS:          0
LLC WRITEBACK ACCESS:     742671  HIT:     266393  MISS:     476278
