
*** ChampSim Multicore Out-of-Order Simulator ***

Warmup Instructions: 10000000
Simulation Instructions: 100000000
Configuration: 1
Number of CPUs: 1
LLC sets: 2048
LLC ways: 16
Off-chip DRAM Channels: 1 Width: 64-bit Data Rate: 1600 MT/s

CPU 0 runs /datasets/cs240c-wi22-a00-public/data/Assignment2-gz/mcf_250B.trace.gz
Heartbeat CPU 0 instructions: 1000000 cycles: 526982 heartbeat IPC: 1.8976 cumulative IPC: 1.8976 (Simulation time: 0 hr 0 min 26 sec) 
Heartbeat CPU 0 instructions: 2000003 cycles: 1028916 heartbeat IPC: 1.9923 cumulative IPC: 1.9438 (Simulation time: 0 hr 0 min 57 sec) 
Heartbeat CPU 0 instructions: 3000002 cycles: 1512400 heartbeat IPC: 2.06832 cumulative IPC: 1.9836 (Simulation time: 0 hr 1 min 22 sec) 
Heartbeat CPU 0 instructions: 4000000 cycles: 2006767 heartbeat IPC: 2.02278 cumulative IPC: 1.99326 (Simulation time: 0 hr 1 min 48 sec) 
Heartbeat CPU 0 instructions: 5000002 cycles: 2497677 heartbeat IPC: 2.03704 cumulative IPC: 2.00186 (Simulation time: 0 hr 2 min 13 sec) 
Heartbeat CPU 0 instructions: 6000002 cycles: 2987106 heartbeat IPC: 2.0432 cumulative IPC: 2.00863 (Simulation time: 0 hr 2 min 38 sec) 
Heartbeat CPU 0 instructions: 7000002 cycles: 3524757 heartbeat IPC: 1.85994 cumulative IPC: 1.98595 (Simulation time: 0 hr 3 min 4 sec) 
Heartbeat CPU 0 instructions: 8000000 cycles: 4021527 heartbeat IPC: 2.013 cumulative IPC: 1.98929 (Simulation time: 0 hr 3 min 30 sec) 
Heartbeat CPU 0 instructions: 9000002 cycles: 4517814 heartbeat IPC: 2.01497 cumulative IPC: 1.99211 (Simulation time: 0 hr 3 min 56 sec) 
Heartbeat CPU 0 instructions: 10000000 cycles: 5011708 heartbeat IPC: 2.02472 cumulative IPC: 1.99533 (Simulation time: 0 hr 4 min 23 sec) 

Warmup complete CPU 0 instructions: 10000003 cycles: 5011709 (Simulation time: 0 hr 4 min 23 sec) 

Heartbeat CPU 0 instructions: 11000001 cycles: 17177486 heartbeat IPC: 0.0821979 cumulative IPC: 0.0821976 (Simulation time: 0 hr 5 min 1 sec) 
Heartbeat CPU 0 instructions: 12000000 cycles: 32319332 heartbeat IPC: 0.0660421 cumulative IPC: 0.0732395 (Simulation time: 0 hr 5 min 51 sec) 
Heartbeat CPU 0 instructions: 13000000 cycles: 48019463 heartbeat IPC: 0.0636937 cumulative IPC: 0.0697548 (Simulation time: 0 hr 6 min 38 sec) 
Heartbeat CPU 0 instructions: 14000003 cycles: 60630988 heartbeat IPC: 0.0792928 cumulative IPC: 0.0719175 (Simulation time: 0 hr 7 min 17 sec) 
Heartbeat CPU 0 instructions: 15000002 cycles: 72860550 heartbeat IPC: 0.081769 cumulative IPC: 0.0736932 (Simulation time: 0 hr 8 min 2 sec) 
Heartbeat CPU 0 instructions: 16000000 cycles: 84351285 heartbeat IPC: 0.0870265 cumulative IPC: 0.0756243 (Simulation time: 0 hr 8 min 40 sec) 
Heartbeat CPU 0 instructions: 17000000 cycles: 96230068 heartbeat IPC: 0.0841837 cumulative IPC: 0.0767389 (Simulation time: 0 hr 9 min 20 sec) 
Heartbeat CPU 0 instructions: 18000002 cycles: 107632129 heartbeat IPC: 0.0877036 cumulative IPC: 0.0779572 (Simulation time: 0 hr 10 min 1 sec) 
Heartbeat CPU 0 instructions: 19000000 cycles: 119317321 heartbeat IPC: 0.0855782 cumulative IPC: 0.0787363 (Simulation time: 0 hr 10 min 39 sec) 
Heartbeat CPU 0 instructions: 20000000 cycles: 130970901 heartbeat IPC: 0.0858105 cumulative IPC: 0.0793908 (Simulation time: 0 hr 11 min 20 sec) 
Heartbeat CPU 0 instructions: 21000000 cycles: 142180806 heartbeat IPC: 0.0892068 cumulative IPC: 0.080193 (Simulation time: 0 hr 11 min 58 sec) 
Heartbeat CPU 0 instructions: 22000000 cycles: 153121360 heartbeat IPC: 0.0914031 cumulative IPC: 0.081021 (Simulation time: 0 hr 12 min 41 sec) 
Heartbeat CPU 0 instructions: 23000003 cycles: 164830977 heartbeat IPC: 0.0854001 cumulative IPC: 0.0813419 (Simulation time: 0 hr 13 min 20 sec) 
Heartbeat CPU 0 instructions: 24000000 cycles: 176450811 heartbeat IPC: 0.0860595 cumulative IPC: 0.0816616 (Simulation time: 0 hr 14 min 1 sec) 
Heartbeat CPU 0 instructions: 25000002 cycles: 188401071 heartbeat IPC: 0.0836804 cumulative IPC: 0.0817932 (Simulation time: 0 hr 14 min 41 sec) 
Heartbeat CPU 0 instructions: 26000000 cycles: 200626706 heartbeat IPC: 0.0817952 cumulative IPC: 0.0817933 (Simulation time: 0 hr 15 min 24 sec) 
Heartbeat CPU 0 instructions: 27000003 cycles: 212965942 heartbeat IPC: 0.0810425 cumulative IPC: 0.0817488 (Simulation time: 0 hr 16 min 5 sec) 
Heartbeat CPU 0 instructions: 28000000 cycles: 225362528 heartbeat IPC: 0.0806671 cumulative IPC: 0.0816879 (Simulation time: 0 hr 16 min 45 sec) 
Heartbeat CPU 0 instructions: 29000000 cycles: 238000005 heartbeat IPC: 0.0791297 cumulative IPC: 0.0815491 (Simulation time: 0 hr 17 min 31 sec) 
Heartbeat CPU 0 instructions: 30000000 cycles: 250325507 heartbeat IPC: 0.0811326 cumulative IPC: 0.0815282 (Simulation time: 0 hr 18 min 12 sec) 
Heartbeat CPU 0 instructions: 31000000 cycles: 262506259 heartbeat IPC: 0.0820967 cumulative IPC: 0.0815551 (Simulation time: 0 hr 18 min 50 sec) 
Heartbeat CPU 0 instructions: 32000000 cycles: 274232774 heartbeat IPC: 0.0852768 cumulative IPC: 0.0817172 (Simulation time: 0 hr 19 min 25 sec) 
Heartbeat CPU 0 instructions: 33000000 cycles: 286427031 heartbeat IPC: 0.0820058 cumulative IPC: 0.0817297 (Simulation time: 0 hr 20 min 3 sec) 
Heartbeat CPU 0 instructions: 34000000 cycles: 298563371 heartbeat IPC: 0.0823972 cumulative IPC: 0.0817573 (Simulation time: 0 hr 20 min 41 sec) 
Heartbeat CPU 0 instructions: 35000000 cycles: 311588581 heartbeat IPC: 0.0767742 cumulative IPC: 0.0815456 (Simulation time: 0 hr 21 min 23 sec) 
Heartbeat CPU 0 instructions: 36000000 cycles: 326622324 heartbeat IPC: 0.066517 cumulative IPC: 0.0808431 (Simulation time: 0 hr 22 min 16 sec) 
Heartbeat CPU 0 instructions: 37000002 cycles: 339373675 heartbeat IPC: 0.0784232 cumulative IPC: 0.0807508 (Simulation time: 0 hr 23 min 2 sec) 
Heartbeat CPU 0 instructions: 38000000 cycles: 351753876 heartbeat IPC: 0.080774 cumulative IPC: 0.0807516 (Simulation time: 0 hr 23 min 41 sec) 
Heartbeat CPU 0 instructions: 39000000 cycles: 363950372 heartbeat IPC: 0.0819908 cumulative IPC: 0.0807937 (Simulation time: 0 hr 24 min 20 sec) 
Heartbeat CPU 0 instructions: 40000000 cycles: 376142108 heartbeat IPC: 0.0820228 cumulative IPC: 0.0808341 (Simulation time: 0 hr 24 min 56 sec) 
Heartbeat CPU 0 instructions: 41000000 cycles: 388174726 heartbeat IPC: 0.0831074 cumulative IPC: 0.0809055 (Simulation time: 0 hr 25 min 32 sec) 
Heartbeat CPU 0 instructions: 42000000 cycles: 400210163 heartbeat IPC: 0.083088 cumulative IPC: 0.080972 (Simulation time: 0 hr 26 min 9 sec) 
Heartbeat CPU 0 instructions: 43000000 cycles: 412310705 heartbeat IPC: 0.0826409 cumulative IPC: 0.0810216 (Simulation time: 0 hr 26 min 44 sec) 
Heartbeat CPU 0 instructions: 44000000 cycles: 424430411 heartbeat IPC: 0.0825103 cumulative IPC: 0.0810646 (Simulation time: 0 hr 27 min 19 sec) 
Heartbeat CPU 0 instructions: 45000001 cycles: 436505400 heartbeat IPC: 0.0828159 cumulative IPC: 0.0811136 (Simulation time: 0 hr 27 min 55 sec) 
Heartbeat CPU 0 instructions: 46000000 cycles: 448540207 heartbeat IPC: 0.0830922 cumulative IPC: 0.0811673 (Simulation time: 0 hr 28 min 31 sec) 
Heartbeat CPU 0 instructions: 47000002 cycles: 460542573 heartbeat IPC: 0.0833171 cumulative IPC: 0.0812239 (Simulation time: 0 hr 29 min 7 sec) 
Heartbeat CPU 0 instructions: 48000000 cycles: 472279584 heartbeat IPC: 0.0852004 cumulative IPC: 0.0813238 (Simulation time: 0 hr 29 min 43 sec) 
Heartbeat CPU 0 instructions: 49000000 cycles: 484426675 heartbeat IPC: 0.0823242 cumulative IPC: 0.0813491 (Simulation time: 0 hr 30 min 25 sec) 
Heartbeat CPU 0 instructions: 50000002 cycles: 496535952 heartbeat IPC: 0.0825815 cumulative IPC: 0.0813795 (Simulation time: 0 hr 31 min 12 sec) 
Heartbeat CPU 0 instructions: 51000002 cycles: 508631844 heartbeat IPC: 0.0826727 cumulative IPC: 0.0814106 (Simulation time: 0 hr 31 min 53 sec) 
Heartbeat CPU 0 instructions: 52000000 cycles: 520646751 heartbeat IPC: 0.0832298 cumulative IPC: 0.081453 (Simulation time: 0 hr 32 min 36 sec) 
Heartbeat CPU 0 instructions: 53000000 cycles: 532787398 heartbeat IPC: 0.0823679 cumulative IPC: 0.081474 (Simulation time: 0 hr 33 min 19 sec) 
Heartbeat CPU 0 instructions: 54000000 cycles: 544791258 heartbeat IPC: 0.0833065 cumulative IPC: 0.0815148 (Simulation time: 0 hr 33 min 59 sec) 
Heartbeat CPU 0 instructions: 55000000 cycles: 556842313 heartbeat IPC: 0.0829803 cumulative IPC: 0.0815468 (Simulation time: 0 hr 34 min 41 sec) 
Heartbeat CPU 0 instructions: 56000000 cycles: 568880535 heartbeat IPC: 0.0830687 cumulative IPC: 0.0815793 (Simulation time: 0 hr 35 min 22 sec) 
Heartbeat CPU 0 instructions: 57000000 cycles: 581027146 heartbeat IPC: 0.0823275 cumulative IPC: 0.081595 (Simulation time: 0 hr 36 min 3 sec) 
Heartbeat CPU 0 instructions: 58000000 cycles: 592993572 heartbeat IPC: 0.0835671 cumulative IPC: 0.0816352 (Simulation time: 0 hr 36 min 42 sec) 
Heartbeat CPU 0 instructions: 59000001 cycles: 605001385 heartbeat IPC: 0.0832792 cumulative IPC: 0.0816681 (Simulation time: 0 hr 37 min 20 sec) 
Heartbeat CPU 0 instructions: 60000000 cycles: 616770313 heartbeat IPC: 0.0849694 cumulative IPC: 0.0817316 (Simulation time: 0 hr 37 min 57 sec) 
Heartbeat CPU 0 instructions: 61000002 cycles: 628745195 heartbeat IPC: 0.0835083 cumulative IPC: 0.0817657 (Simulation time: 0 hr 38 min 31 sec) 
Heartbeat CPU 0 instructions: 62000000 cycles: 638346702 heartbeat IPC: 0.10415 cumulative IPC: 0.082105 (Simulation time: 0 hr 38 min 58 sec) 
Heartbeat CPU 0 instructions: 63000001 cycles: 649644093 heartbeat IPC: 0.0885161 cumulative IPC: 0.0822174 (Simulation time: 0 hr 39 min 29 sec) 
Heartbeat CPU 0 instructions: 64000000 cycles: 661282300 heartbeat IPC: 0.0859238 cumulative IPC: 0.0822831 (Simulation time: 0 hr 40 min 0 sec) 
Heartbeat CPU 0 instructions: 65000000 cycles: 672120046 heartbeat IPC: 0.0922701 cumulative IPC: 0.0824454 (Simulation time: 0 hr 40 min 30 sec) 
Heartbeat CPU 0 instructions: 66000000 cycles: 683858641 heartbeat IPC: 0.0851891 cumulative IPC: 0.0824928 (Simulation time: 0 hr 40 min 59 sec) 
Heartbeat CPU 0 instructions: 67000000 cycles: 695903374 heartbeat IPC: 0.0830238 cumulative IPC: 0.0825021 (Simulation time: 0 hr 41 min 30 sec) 
Heartbeat CPU 0 instructions: 68000000 cycles: 707882805 heartbeat IPC: 0.0834764 cumulative IPC: 0.0825187 (Simulation time: 0 hr 41 min 59 sec) 
Heartbeat CPU 0 instructions: 69000000 cycles: 719434689 heartbeat IPC: 0.086566 cumulative IPC: 0.0825841 (Simulation time: 0 hr 42 min 27 sec) 
Heartbeat CPU 0 instructions: 70000000 cycles: 731075210 heartbeat IPC: 0.0859068 cumulative IPC: 0.0826374 (Simulation time: 0 hr 42 min 54 sec) 
Heartbeat CPU 0 instructions: 71000000 cycles: 742600243 heartbeat IPC: 0.0867677 cumulative IPC: 0.0827019 (Simulation time: 0 hr 43 min 19 sec) 
Heartbeat CPU 0 instructions: 72000000 cycles: 754247050 heartbeat IPC: 0.0858604 cumulative IPC: 0.082751 (Simulation time: 0 hr 43 min 44 sec) 
Heartbeat CPU 0 instructions: 73000001 cycles: 766123814 heartbeat IPC: 0.0841981 cumulative IPC: 0.0827736 (Simulation time: 0 hr 44 min 9 sec) 
Heartbeat CPU 0 instructions: 74000001 cycles: 777676094 heartbeat IPC: 0.086563 cumulative IPC: 0.0828303 (Simulation time: 0 hr 44 min 32 sec) 
Heartbeat CPU 0 instructions: 75000002 cycles: 789002030 heartbeat IPC: 0.088293 cumulative IPC: 0.0829092 (Simulation time: 0 hr 44 min 54 sec) 
Heartbeat CPU 0 instructions: 76000000 cycles: 800638350 heartbeat IPC: 0.0859376 cumulative IPC: 0.0829535 (Simulation time: 0 hr 45 min 16 sec) 
Heartbeat CPU 0 instructions: 77000003 cycles: 815222360 heartbeat IPC: 0.0685685 cumulative IPC: 0.0826945 (Simulation time: 0 hr 45 min 43 sec) 
Heartbeat CPU 0 instructions: 78000000 cycles: 828535710 heartbeat IPC: 0.0751124 cumulative IPC: 0.082572 (Simulation time: 0 hr 46 min 3 sec) 
Heartbeat CPU 0 instructions: 79000000 cycles: 840192789 heartbeat IPC: 0.0857848 cumulative IPC: 0.0826168 (Simulation time: 0 hr 46 min 21 sec) 
Heartbeat CPU 0 instructions: 80000000 cycles: 851792418 heartbeat IPC: 0.0862097 cumulative IPC: 0.082666 (Simulation time: 0 hr 46 min 36 sec) 
Heartbeat CPU 0 instructions: 81000001 cycles: 863237868 heartbeat IPC: 0.0873711 cumulative IPC: 0.0827288 (Simulation time: 0 hr 46 min 51 sec) 
Heartbeat CPU 0 instructions: 82000001 cycles: 873568483 heartbeat IPC: 0.0967997 cumulative IPC: 0.0828961 (Simulation time: 0 hr 47 min 4 sec) 
Heartbeat CPU 0 instructions: 83000002 cycles: 883077168 heartbeat IPC: 0.105167 cumulative IPC: 0.0831373 (Simulation time: 0 hr 47 min 16 sec) 
Heartbeat CPU 0 instructions: 84000000 cycles: 892350887 heartbeat IPC: 0.107831 cumulative IPC: 0.0833954 (Simulation time: 0 hr 47 min 29 sec) 
Heartbeat CPU 0 instructions: 85000000 cycles: 902321969 heartbeat IPC: 0.10029 cumulative IPC: 0.0835831 (Simulation time: 0 hr 47 min 40 sec) 
Heartbeat CPU 0 instructions: 86000000 cycles: 911961431 heartbeat IPC: 0.10374 cumulative IPC: 0.0837974 (Simulation time: 0 hr 47 min 50 sec) 
Heartbeat CPU 0 instructions: 87000001 cycles: 925911903 heartbeat IPC: 0.0716822 cumulative IPC: 0.0836138 (Simulation time: 0 hr 48 min 2 sec) 
Heartbeat CPU 0 instructions: 88000000 cycles: 938414555 heartbeat IPC: 0.079983 cumulative IPC: 0.0835652 (Simulation time: 0 hr 48 min 11 sec) 
Heartbeat CPU 0 instructions: 89000001 cycles: 949019334 heartbeat IPC: 0.0942972 cumulative IPC: 0.0836858 (Simulation time: 0 hr 48 min 18 sec) 
Heartbeat CPU 0 instructions: 90000000 cycles: 957499314 heartbeat IPC: 0.117925 cumulative IPC: 0.0839906 (Simulation time: 0 hr 48 min 24 sec) 
Heartbeat CPU 0 instructions: 91000000 cycles: 970390067 heartbeat IPC: 0.077575 cumulative IPC: 0.0839049 (Simulation time: 0 hr 48 min 30 sec) 
Heartbeat CPU 0 instructions: 92000000 cycles: 981578261 heartbeat IPC: 0.0893799 cumulative IPC: 0.0839676 (Simulation time: 0 hr 48 min 35 sec) 
Heartbeat CPU 0 instructions: 93000000 cycles: 994182081 heartbeat IPC: 0.079341 cumulative IPC: 0.0839087 (Simulation time: 0 hr 48 min 40 sec) 
Heartbeat CPU 0 instructions: 94000000 cycles: 1006288130 heartbeat IPC: 0.0826033 cumulative IPC: 0.0838929 (Simulation time: 0 hr 48 min 45 sec) 
Heartbeat CPU 0 instructions: 95000000 cycles: 1018237905 heartbeat IPC: 0.0836836 cumulative IPC: 0.0838904 (Simulation time: 0 hr 48 min 50 sec) 
Heartbeat CPU 0 instructions: 96000000 cycles: 1030320764 heartbeat IPC: 0.0827619 cumulative IPC: 0.0838771 (Simulation time: 0 hr 48 min 55 sec) 
Heartbeat CPU 0 instructions: 97000000 cycles: 1042277072 heartbeat IPC: 0.0836379 cumulative IPC: 0.0838744 (Simulation time: 0 hr 49 min 0 sec) 
Heartbeat CPU 0 instructions: 98000000 cycles: 1054234997 heartbeat IPC: 0.0836265 cumulative IPC: 0.0838716 (Simulation time: 0 hr 49 min 5 sec) 
Heartbeat CPU 0 instructions: 99000000 cycles: 1065996931 heartbeat IPC: 0.08502 cumulative IPC: 0.0838843 (Simulation time: 0 hr 49 min 10 sec) 
Heartbeat CPU 0 instructions: 100000000 cycles: 1077985007 heartbeat IPC: 0.0834162 cumulative IPC: 0.0838791 (Simulation time: 0 hr 49 min 15 sec) 
Heartbeat CPU 0 instructions: 101000002 cycles: 1090104062 heartbeat IPC: 0.0825149 cumulative IPC: 0.0838638 (Simulation time: 0 hr 49 min 20 sec) 
Heartbeat CPU 0 instructions: 102000002 cycles: 1102302294 heartbeat IPC: 0.0819791 cumulative IPC: 0.0838429 (Simulation time: 0 hr 49 min 25 sec) 
Heartbeat CPU 0 instructions: 103000000 cycles: 1114638807 heartbeat IPC: 0.08106 cumulative IPC: 0.0838119 (Simulation time: 0 hr 49 min 30 sec) 
Heartbeat CPU 0 instructions: 104000000 cycles: 1127049271 heartbeat IPC: 0.0805772 cumulative IPC: 0.0837762 (Simulation time: 0 hr 49 min 35 sec) 
Heartbeat CPU 0 instructions: 105000000 cycles: 1139290550 heartbeat IPC: 0.0816908 cumulative IPC: 0.0837537 (Simulation time: 0 hr 49 min 40 sec) 
Heartbeat CPU 0 instructions: 106000002 cycles: 1151425432 heartbeat IPC: 0.0824072 cumulative IPC: 0.0837394 (Simulation time: 0 hr 49 min 45 sec) 
Heartbeat CPU 0 instructions: 107000003 cycles: 1163586150 heartbeat IPC: 0.0822321 cumulative IPC: 0.0837236 (Simulation time: 0 hr 49 min 50 sec) 
Heartbeat CPU 0 instructions: 108000000 cycles: 1175761882 heartbeat IPC: 0.0821303 cumulative IPC: 0.083707 (Simulation time: 0 hr 49 min 55 sec) 
Heartbeat CPU 0 instructions: 109000000 cycles: 1187708662 heartbeat IPC: 0.0837046 cumulative IPC: 0.083707 (Simulation time: 0 hr 50 min 0 sec) 
Heartbeat CPU 0 instructions: 110000000 cycles: 1199694200 heartbeat IPC: 0.0834339 cumulative IPC: 0.0837042 (Simulation time: 0 hr 50 min 5 sec) 
Finished CPU 0 instructions: 100000000 cycles: 1194682493 cummulative IPC: 0.0837042 (Simulation time: 0 hr 50 min 5 sec) 

ChampSim completed all CPUs

Region of Interest Statistics

CPU 0 cummulative IPC: 0.0837042 instructions: 100000000 cycles: 1194682493
LLC TOTAL     ACCESS:   14619470  HIT:    7734471  MISS:    6884999
LLC LOAD      ACCESS:   14276872  HIT:    7473088  MISS:    6803784
LLC RFO       ACCESS:      25874  HIT:      15661  MISS:      10213
LLC PREFETCH  ACCESS:          0  HIT:          0  MISS:          0
LLC WRITEBACK ACCESS:     316724  HIT:     245722  MISS:      71002
