
*** ChampSim Multicore Out-of-Order Simulator ***

Warmup Instructions: 10000000
Simulation Instructions: 100000000
Configuration: 1
Number of CPUs: 1
LLC sets: 2048
LLC ways: 16
Off-chip DRAM Channels: 1 Width: 64-bit Data Rate: 1600 MT/s

CPU 0 runs /datasets/cs240c-wi22-a00-public/data/Assignment2-gz/libquantum_964B.trace.gz
Heartbeat CPU 0 instructions: 1000001 cycles: 333344 heartbeat IPC: 2.99991 cumulative IPC: 2.99991 (Simulation time: 0 hr 0 min 17 sec) 
Heartbeat CPU 0 instructions: 2000001 cycles: 666677 heartbeat IPC: 3 cumulative IPC: 2.99995 (Simulation time: 0 hr 0 min 34 sec) 
Heartbeat CPU 0 instructions: 3000000 cycles: 1000009 heartbeat IPC: 3.00001 cumulative IPC: 2.99997 (Simulation time: 0 hr 0 min 49 sec) 
Heartbeat CPU 0 instructions: 4000000 cycles: 1333342 heartbeat IPC: 3 cumulative IPC: 2.99998 (Simulation time: 0 hr 1 min 4 sec) 
Heartbeat CPU 0 instructions: 5000001 cycles: 1666677 heartbeat IPC: 2.99999 cumulative IPC: 2.99998 (Simulation time: 0 hr 1 min 16 sec) 
Heartbeat CPU 0 instructions: 6000001 cycles: 2000010 heartbeat IPC: 3 cumulative IPC: 2.99999 (Simulation time: 0 hr 1 min 31 sec) 
Heartbeat CPU 0 instructions: 7000003 cycles: 2331521 heartbeat IPC: 3.0165 cumulative IPC: 3.00233 (Simulation time: 0 hr 1 min 48 sec) 
Heartbeat CPU 0 instructions: 8000000 cycles: 2662242 heartbeat IPC: 3.02369 cumulative IPC: 3.00499 (Simulation time: 0 hr 2 min 2 sec) 
Heartbeat CPU 0 instructions: 9000001 cycles: 2992965 heartbeat IPC: 3.02368 cumulative IPC: 3.00705 (Simulation time: 0 hr 2 min 15 sec) 
Heartbeat CPU 0 instructions: 10000003 cycles: 3323686 heartbeat IPC: 3.0237 cumulative IPC: 3.00871 (Simulation time: 0 hr 2 min 33 sec) 

Warmup complete CPU 0 instructions: 10000003 cycles: 3323686 (Simulation time: 0 hr 2 min 33 sec) 

Heartbeat CPU 0 instructions: 11000000 cycles: 5625914 heartbeat IPC: 0.434361 cumulative IPC: 0.434361 (Simulation time: 0 hr 2 min 58 sec) 
Heartbeat CPU 0 instructions: 12000000 cycles: 7922070 heartbeat IPC: 0.43551 cumulative IPC: 0.434935 (Simulation time: 0 hr 3 min 24 sec) 
Heartbeat CPU 0 instructions: 13000001 cycles: 10223052 heartbeat IPC: 0.434597 cumulative IPC: 0.434822 (Simulation time: 0 hr 3 min 50 sec) 
Heartbeat CPU 0 instructions: 14000000 cycles: 12520167 heartbeat IPC: 0.435328 cumulative IPC: 0.434949 (Simulation time: 0 hr 4 min 16 sec) 
Heartbeat CPU 0 instructions: 15000003 cycles: 14823470 heartbeat IPC: 0.43416 cumulative IPC: 0.434791 (Simulation time: 0 hr 4 min 40 sec) 
Heartbeat CPU 0 instructions: 16000000 cycles: 17129777 heartbeat IPC: 0.433592 cumulative IPC: 0.434591 (Simulation time: 0 hr 5 min 7 sec) 
Heartbeat CPU 0 instructions: 17000000 cycles: 19424232 heartbeat IPC: 0.435833 cumulative IPC: 0.434768 (Simulation time: 0 hr 5 min 33 sec) 
Heartbeat CPU 0 instructions: 18000003 cycles: 21720237 heartbeat IPC: 0.43554 cumulative IPC: 0.434864 (Simulation time: 0 hr 6 min 2 sec) 
Heartbeat CPU 0 instructions: 19000002 cycles: 24011536 heartbeat IPC: 0.436433 cumulative IPC: 0.435038 (Simulation time: 0 hr 6 min 32 sec) 
Heartbeat CPU 0 instructions: 20000000 cycles: 26315464 heartbeat IPC: 0.43404 cumulative IPC: 0.434938 (Simulation time: 0 hr 6 min 56 sec) 
Heartbeat CPU 0 instructions: 21000003 cycles: 28616186 heartbeat IPC: 0.434647 cumulative IPC: 0.434912 (Simulation time: 0 hr 7 min 21 sec) 
Heartbeat CPU 0 instructions: 22000002 cycles: 30912354 heartbeat IPC: 0.435508 cumulative IPC: 0.434961 (Simulation time: 0 hr 7 min 47 sec) 
Heartbeat CPU 0 instructions: 23000000 cycles: 33214900 heartbeat IPC: 0.434301 cumulative IPC: 0.43491 (Simulation time: 0 hr 8 min 12 sec) 
Heartbeat CPU 0 instructions: 24000000 cycles: 35517328 heartbeat IPC: 0.434324 cumulative IPC: 0.434868 (Simulation time: 0 hr 8 min 34 sec) 
Heartbeat CPU 0 instructions: 25000000 cycles: 37820847 heartbeat IPC: 0.434118 cumulative IPC: 0.434818 (Simulation time: 0 hr 8 min 57 sec) 
Heartbeat CPU 0 instructions: 26000002 cycles: 40036811 heartbeat IPC: 0.451272 cumulative IPC: 0.435811 (Simulation time: 0 hr 9 min 26 sec) 
Heartbeat CPU 0 instructions: 27000002 cycles: 42833324 heartbeat IPC: 0.357588 cumulative IPC: 0.430275 (Simulation time: 0 hr 10 min 0 sec) 
Heartbeat CPU 0 instructions: 28000000 cycles: 45702565 heartbeat IPC: 0.348524 cumulative IPC: 0.42474 (Simulation time: 0 hr 10 min 37 sec) 
Heartbeat CPU 0 instructions: 29000002 cycles: 48568214 heartbeat IPC: 0.348962 cumulative IPC: 0.41994 (Simulation time: 0 hr 11 min 8 sec) 
Heartbeat CPU 0 instructions: 30000002 cycles: 51435919 heartbeat IPC: 0.348711 cumulative IPC: 0.415695 (Simulation time: 0 hr 11 min 41 sec) 
Heartbeat CPU 0 instructions: 31000002 cycles: 53919565 heartbeat IPC: 0.402634 cumulative IPC: 0.415054 (Simulation time: 0 hr 12 min 17 sec) 
Heartbeat CPU 0 instructions: 32000000 cycles: 56288792 heartbeat IPC: 0.422078 cumulative IPC: 0.415368 (Simulation time: 0 hr 12 min 53 sec) 
Heartbeat CPU 0 instructions: 33000002 cycles: 58657824 heartbeat IPC: 0.422114 cumulative IPC: 0.415657 (Simulation time: 0 hr 13 min 23 sec) 
Heartbeat CPU 0 instructions: 34000002 cycles: 61031609 heartbeat IPC: 0.421268 cumulative IPC: 0.415887 (Simulation time: 0 hr 13 min 57 sec) 
Heartbeat CPU 0 instructions: 35000002 cycles: 63398471 heartbeat IPC: 0.4225 cumulative IPC: 0.416148 (Simulation time: 0 hr 14 min 31 sec) 
Heartbeat CPU 0 instructions: 36000000 cycles: 65740224 heartbeat IPC: 0.42703 cumulative IPC: 0.416556 (Simulation time: 0 hr 15 min 5 sec) 
Heartbeat CPU 0 instructions: 37000001 cycles: 67744735 heartbeat IPC: 0.498875 cumulative IPC: 0.419118 (Simulation time: 0 hr 15 min 34 sec) 
Heartbeat CPU 0 instructions: 38000000 cycles: 69744734 heartbeat IPC: 0.5 cumulative IPC: 0.421553 (Simulation time: 0 hr 16 min 6 sec) 
Heartbeat CPU 0 instructions: 39000003 cycles: 71744642 heartbeat IPC: 0.500024 cumulative IPC: 0.423847 (Simulation time: 0 hr 16 min 38 sec) 
Heartbeat CPU 0 instructions: 40000000 cycles: 73744636 heartbeat IPC: 0.5 cumulative IPC: 0.42601 (Simulation time: 0 hr 17 min 14 sec) 
Heartbeat CPU 0 instructions: 41000001 cycles: 75744674 heartbeat IPC: 0.499991 cumulative IPC: 0.428053 (Simulation time: 0 hr 17 min 40 sec) 
Heartbeat CPU 0 instructions: 42000000 cycles: 77744671 heartbeat IPC: 0.5 cumulative IPC: 0.429986 (Simulation time: 0 hr 18 min 7 sec) 
Heartbeat CPU 0 instructions: 43000001 cycles: 79742104 heartbeat IPC: 0.500643 cumulative IPC: 0.431833 (Simulation time: 0 hr 18 min 36 sec) 
Heartbeat CPU 0 instructions: 44000000 cycles: 81271793 heartbeat IPC: 0.653727 cumulative IPC: 0.436188 (Simulation time: 0 hr 19 min 1 sec) 
Heartbeat CPU 0 instructions: 45000002 cycles: 82562034 heartbeat IPC: 0.775051 cumulative IPC: 0.441705 (Simulation time: 0 hr 19 min 26 sec) 
Heartbeat CPU 0 instructions: 46000001 cycles: 84561944 heartbeat IPC: 0.500022 cumulative IPC: 0.443141 (Simulation time: 0 hr 19 min 52 sec) 
Heartbeat CPU 0 instructions: 47000000 cycles: 86561936 heartbeat IPC: 0.500001 cumulative IPC: 0.444507 (Simulation time: 0 hr 20 min 22 sec) 
Heartbeat CPU 0 instructions: 48000000 cycles: 88561937 heartbeat IPC: 0.5 cumulative IPC: 0.445809 (Simulation time: 0 hr 20 min 51 sec) 
Heartbeat CPU 0 instructions: 49000002 cycles: 90562192 heartbeat IPC: 0.499937 cumulative IPC: 0.44705 (Simulation time: 0 hr 21 min 15 sec) 
Heartbeat CPU 0 instructions: 50000001 cycles: 92562104 heartbeat IPC: 0.500022 cumulative IPC: 0.448237 (Simulation time: 0 hr 21 min 42 sec) 
Heartbeat CPU 0 instructions: 51000000 cycles: 94562207 heartbeat IPC: 0.499974 cumulative IPC: 0.449372 (Simulation time: 0 hr 22 min 12 sec) 
Heartbeat CPU 0 instructions: 52000000 cycles: 96562314 heartbeat IPC: 0.499973 cumulative IPC: 0.450457 (Simulation time: 0 hr 22 min 40 sec) 
Heartbeat CPU 0 instructions: 53000000 cycles: 98562463 heartbeat IPC: 0.499963 cumulative IPC: 0.451497 (Simulation time: 0 hr 23 min 5 sec) 
Heartbeat CPU 0 instructions: 54000002 cycles: 100562378 heartbeat IPC: 0.500022 cumulative IPC: 0.452495 (Simulation time: 0 hr 23 min 29 sec) 
Heartbeat CPU 0 instructions: 55000002 cycles: 102563952 heartbeat IPC: 0.499607 cumulative IPC: 0.453445 (Simulation time: 0 hr 23 min 54 sec) 
Heartbeat CPU 0 instructions: 56000000 cycles: 104861628 heartbeat IPC: 0.435221 cumulative IPC: 0.453033 (Simulation time: 0 hr 24 min 19 sec) 
Heartbeat CPU 0 instructions: 57000001 cycles: 107167454 heartbeat IPC: 0.433684 cumulative IPC: 0.452603 (Simulation time: 0 hr 24 min 43 sec) 
Heartbeat CPU 0 instructions: 58000000 cycles: 109462958 heartbeat IPC: 0.435634 cumulative IPC: 0.452236 (Simulation time: 0 hr 25 min 5 sec) 
Heartbeat CPU 0 instructions: 59000003 cycles: 111768758 heartbeat IPC: 0.43369 cumulative IPC: 0.451842 (Simulation time: 0 hr 25 min 30 sec) 
Heartbeat CPU 0 instructions: 60000000 cycles: 114058179 heartbeat IPC: 0.43679 cumulative IPC: 0.45153 (Simulation time: 0 hr 25 min 53 sec) 
Heartbeat CPU 0 instructions: 61000002 cycles: 116358221 heartbeat IPC: 0.434776 cumulative IPC: 0.45119 (Simulation time: 0 hr 26 min 16 sec) 
Heartbeat CPU 0 instructions: 62000001 cycles: 118648371 heartbeat IPC: 0.436652 cumulative IPC: 0.450901 (Simulation time: 0 hr 26 min 39 sec) 
Heartbeat CPU 0 instructions: 63000001 cycles: 120350652 heartbeat IPC: 0.587447 cumulative IPC: 0.452887 (Simulation time: 0 hr 26 min 59 sec) 
Heartbeat CPU 0 instructions: 64000000 cycles: 121918708 heartbeat IPC: 0.637732 cumulative IPC: 0.455331 (Simulation time: 0 hr 27 min 19 sec) 
Heartbeat CPU 0 instructions: 65000002 cycles: 124209898 heartbeat IPC: 0.436455 cumulative IPC: 0.454973 (Simulation time: 0 hr 27 min 39 sec) 
Heartbeat CPU 0 instructions: 66000002 cycles: 126510912 heartbeat IPC: 0.434591 cumulative IPC: 0.454593 (Simulation time: 0 hr 28 min 0 sec) 
Heartbeat CPU 0 instructions: 67000000 cycles: 128801427 heartbeat IPC: 0.436582 cumulative IPC: 0.454264 (Simulation time: 0 hr 28 min 21 sec) 
Heartbeat CPU 0 instructions: 68000000 cycles: 131102254 heartbeat IPC: 0.434626 cumulative IPC: 0.45391 (Simulation time: 0 hr 28 min 41 sec) 
Heartbeat CPU 0 instructions: 69000000 cycles: 133404004 heartbeat IPC: 0.434452 cumulative IPC: 0.453566 (Simulation time: 0 hr 29 min 2 sec) 
Heartbeat CPU 0 instructions: 70000002 cycles: 135703984 heartbeat IPC: 0.434787 cumulative IPC: 0.45324 (Simulation time: 0 hr 29 min 29 sec) 
Heartbeat CPU 0 instructions: 71000001 cycles: 138008273 heartbeat IPC: 0.433973 cumulative IPC: 0.45291 (Simulation time: 0 hr 29 min 55 sec) 
Heartbeat CPU 0 instructions: 72000000 cycles: 140308587 heartbeat IPC: 0.434723 cumulative IPC: 0.452605 (Simulation time: 0 hr 30 min 19 sec) 
Heartbeat CPU 0 instructions: 73000000 cycles: 142612581 heartbeat IPC: 0.434029 cumulative IPC: 0.452297 (Simulation time: 0 hr 30 min 43 sec) 
Heartbeat CPU 0 instructions: 74000000 cycles: 144944633 heartbeat IPC: 0.428807 cumulative IPC: 0.451911 (Simulation time: 0 hr 31 min 13 sec) 
Heartbeat CPU 0 instructions: 75000000 cycles: 147439899 heartbeat IPC: 0.400759 cumulative IPC: 0.451025 (Simulation time: 0 hr 31 min 48 sec) 
Heartbeat CPU 0 instructions: 76000000 cycles: 149933116 heartbeat IPC: 0.401088 cumulative IPC: 0.450176 (Simulation time: 0 hr 32 min 21 sec) 
Heartbeat CPU 0 instructions: 77000000 cycles: 152408276 heartbeat IPC: 0.404014 cumulative IPC: 0.449409 (Simulation time: 0 hr 32 min 55 sec) 
Heartbeat CPU 0 instructions: 78000000 cycles: 154797396 heartbeat IPC: 0.418564 cumulative IPC: 0.448923 (Simulation time: 0 hr 33 min 28 sec) 
Heartbeat CPU 0 instructions: 79000000 cycles: 156349333 heartbeat IPC: 0.644356 cumulative IPC: 0.450905 (Simulation time: 0 hr 33 min 56 sec) 
Heartbeat CPU 0 instructions: 80000000 cycles: 158845076 heartbeat IPC: 0.400682 cumulative IPC: 0.450099 (Simulation time: 0 hr 34 min 24 sec) 
Heartbeat CPU 0 instructions: 81000000 cycles: 161325361 heartbeat IPC: 0.403179 cumulative IPC: 0.449362 (Simulation time: 0 hr 34 min 58 sec) 
Heartbeat CPU 0 instructions: 82000000 cycles: 163810929 heartbeat IPC: 0.402323 cumulative IPC: 0.448634 (Simulation time: 0 hr 35 min 28 sec) 
Heartbeat CPU 0 instructions: 83000000 cycles: 166296437 heartbeat IPC: 0.402332 cumulative IPC: 0.447928 (Simulation time: 0 hr 35 min 55 sec) 
Heartbeat CPU 0 instructions: 84000000 cycles: 168780912 heartbeat IPC: 0.4025 cumulative IPC: 0.447245 (Simulation time: 0 hr 36 min 26 sec) 
Heartbeat CPU 0 instructions: 85000001 cycles: 170844735 heartbeat IPC: 0.484538 cumulative IPC: 0.447705 (Simulation time: 0 hr 36 min 53 sec) 
Heartbeat CPU 0 instructions: 86000000 cycles: 172750467 heartbeat IPC: 0.524732 cumulative IPC: 0.448571 (Simulation time: 0 hr 37 min 16 sec) 
Heartbeat CPU 0 instructions: 87000003 cycles: 174656284 heartbeat IPC: 0.524711 cumulative IPC: 0.449418 (Simulation time: 0 hr 37 min 38 sec) 
Heartbeat CPU 0 instructions: 88000000 cycles: 176562102 heartbeat IPC: 0.524707 cumulative IPC: 0.450247 (Simulation time: 0 hr 38 min 0 sec) 
Heartbeat CPU 0 instructions: 89000001 cycles: 178467970 heartbeat IPC: 0.524696 cumulative IPC: 0.451057 (Simulation time: 0 hr 38 min 21 sec) 
Heartbeat CPU 0 instructions: 90000000 cycles: 180373896 heartbeat IPC: 0.524679 cumulative IPC: 0.451849 (Simulation time: 0 hr 38 min 41 sec) 
Heartbeat CPU 0 instructions: 91000001 cycles: 182279627 heartbeat IPC: 0.524734 cumulative IPC: 0.452625 (Simulation time: 0 hr 39 min 4 sec) 
Heartbeat CPU 0 instructions: 92000000 cycles: 184039114 heartbeat IPC: 0.568347 cumulative IPC: 0.453752 (Simulation time: 0 hr 39 min 29 sec) 
Heartbeat CPU 0 instructions: 93000002 cycles: 185084561 heartbeat IPC: 0.956531 cumulative IPC: 0.456644 (Simulation time: 0 hr 39 min 51 sec) 
Heartbeat CPU 0 instructions: 94000001 cycles: 186899988 heartbeat IPC: 0.550834 cumulative IPC: 0.457575 (Simulation time: 0 hr 40 min 14 sec) 
Heartbeat CPU 0 instructions: 95000000 cycles: 188805714 heartbeat IPC: 0.524734 cumulative IPC: 0.458265 (Simulation time: 0 hr 40 min 36 sec) 
Heartbeat CPU 0 instructions: 96000000 cycles: 190711534 heartbeat IPC: 0.524709 cumulative IPC: 0.458941 (Simulation time: 0 hr 40 min 56 sec) 
Heartbeat CPU 0 instructions: 97000002 cycles: 192617398 heartbeat IPC: 0.524697 cumulative IPC: 0.459603 (Simulation time: 0 hr 41 min 16 sec) 
Heartbeat CPU 0 instructions: 98000001 cycles: 194523219 heartbeat IPC: 0.524708 cumulative IPC: 0.460252 (Simulation time: 0 hr 41 min 34 sec) 
Heartbeat CPU 0 instructions: 99000000 cycles: 196428945 heartbeat IPC: 0.524734 cumulative IPC: 0.460889 (Simulation time: 0 hr 41 min 54 sec) 
Heartbeat CPU 0 instructions: 100000000 cycles: 198334764 heartbeat IPC: 0.524709 cumulative IPC: 0.461512 (Simulation time: 0 hr 42 min 12 sec) 
Heartbeat CPU 0 instructions: 101000000 cycles: 200240627 heartbeat IPC: 0.524697 cumulative IPC: 0.462124 (Simulation time: 0 hr 42 min 28 sec) 
Heartbeat CPU 0 instructions: 102000002 cycles: 202146449 heartbeat IPC: 0.524709 cumulative IPC: 0.462724 (Simulation time: 0 hr 42 min 44 sec) 
Heartbeat CPU 0 instructions: 103000001 cycles: 204023150 heartbeat IPC: 0.532849 cumulative IPC: 0.463379 (Simulation time: 0 hr 43 min 5 sec) 
Heartbeat CPU 0 instructions: 104000000 cycles: 206420237 heartbeat IPC: 0.417173 cumulative IPC: 0.462834 (Simulation time: 0 hr 43 min 27 sec) 
Heartbeat CPU 0 instructions: 105000000 cycles: 208938781 heartbeat IPC: 0.397055 cumulative IPC: 0.462028 (Simulation time: 0 hr 43 min 45 sec) 
Heartbeat CPU 0 instructions: 106000000 cycles: 211467013 heartbeat IPC: 0.395533 cumulative IPC: 0.461221 (Simulation time: 0 hr 44 min 4 sec) 
Heartbeat CPU 0 instructions: 107000000 cycles: 213981164 heartbeat IPC: 0.397749 cumulative IPC: 0.460463 (Simulation time: 0 hr 44 min 20 sec) 
Heartbeat CPU 0 instructions: 108000000 cycles: 215448785 heartbeat IPC: 0.681375 cumulative IPC: 0.461992 (Simulation time: 0 hr 44 min 33 sec) 
Heartbeat CPU 0 instructions: 109000000 cycles: 217909487 heartbeat IPC: 0.406388 cumulative IPC: 0.461354 (Simulation time: 0 hr 44 min 49 sec) 
Heartbeat CPU 0 instructions: 110000000 cycles: 220429031 heartbeat IPC: 0.396897 cumulative IPC: 0.460606 (Simulation time: 0 hr 45 min 6 sec) 
Finished CPU 0 instructions: 100000001 cycles: 217105346 cummulative IPC: 0.460606 (Simulation time: 0 hr 45 min 6 sec) 

ChampSim completed all CPUs

Region of Interest Statistics

CPU 0 cummulative IPC: 0.460606 instructions: 100000001 cycles: 217105346
LLC TOTAL     ACCESS:    4917103  HIT:     472110  MISS:    4444993
LLC LOAD      ACCESS:    3390381  HIT:     159090  MISS:    3231291
LLC RFO       ACCESS:         24  HIT:         16  MISS:          8
LLC PREFETCH  ACCESS:          0  HIT:          0  MISS:          0
LLC WRITEBACK ACCESS:    1526698  HIT:     313004  MISS:    1213694
