
*** ChampSim Multicore Out-of-Order Simulator ***

Warmup Instructions: 10000000
Simulation Instructions: 100000000
Configuration: 1
Number of CPUs: 1
LLC sets: 2048
LLC ways: 16
Off-chip DRAM Channels: 1 Width: 64-bit Data Rate: 1600 MT/s

CPU 0 runs /datasets/cs240c-wi22-a00-public/data/Assignment2-gz/milc_744B.trace.gz
Heartbeat CPU 0 instructions: 1000000 cycles: 383399 heartbeat IPC: 2.60825 cumulative IPC: 2.60825 (Simulation time: 0 hr 0 min 20 sec) 
Heartbeat CPU 0 instructions: 2000001 cycles: 766759 heartbeat IPC: 2.60852 cumulative IPC: 2.60838 (Simulation time: 0 hr 0 min 39 sec) 
Heartbeat CPU 0 instructions: 3000001 cycles: 1150170 heartbeat IPC: 2.60817 cumulative IPC: 2.60831 (Simulation time: 0 hr 1 min 0 sec) 
Heartbeat CPU 0 instructions: 4000000 cycles: 1533552 heartbeat IPC: 2.60836 cumulative IPC: 2.60832 (Simulation time: 0 hr 1 min 23 sec) 
Heartbeat CPU 0 instructions: 5000001 cycles: 1916947 heartbeat IPC: 2.60828 cumulative IPC: 2.60831 (Simulation time: 0 hr 1 min 45 sec) 
Heartbeat CPU 0 instructions: 6000002 cycles: 2300332 heartbeat IPC: 2.60835 cumulative IPC: 2.60832 (Simulation time: 0 hr 2 min 8 sec) 
Heartbeat CPU 0 instructions: 7000002 cycles: 2683720 heartbeat IPC: 2.60832 cumulative IPC: 2.60832 (Simulation time: 0 hr 2 min 33 sec) 
Heartbeat CPU 0 instructions: 8000000 cycles: 3067077 heartbeat IPC: 2.60853 cumulative IPC: 2.60835 (Simulation time: 0 hr 2 min 56 sec) 
Heartbeat CPU 0 instructions: 9000003 cycles: 3450523 heartbeat IPC: 2.60794 cumulative IPC: 2.6083 (Simulation time: 0 hr 3 min 20 sec) 
Heartbeat CPU 0 instructions: 10000002 cycles: 3833917 heartbeat IPC: 2.60828 cumulative IPC: 2.6083 (Simulation time: 0 hr 3 min 43 sec) 

Warmup complete CPU 0 instructions: 10000002 cycles: 3833917 (Simulation time: 0 hr 3 min 43 sec) 

Heartbeat CPU 0 instructions: 11000002 cycles: 5783808 heartbeat IPC: 0.512849 cumulative IPC: 0.512849 (Simulation time: 0 hr 4 min 9 sec) 
Heartbeat CPU 0 instructions: 12000000 cycles: 7725657 heartbeat IPC: 0.514972 cumulative IPC: 0.513908 (Simulation time: 0 hr 4 min 41 sec) 
Heartbeat CPU 0 instructions: 13000003 cycles: 9666267 heartbeat IPC: 0.515303 cumulative IPC: 0.514373 (Simulation time: 0 hr 5 min 9 sec) 
Heartbeat CPU 0 instructions: 14000000 cycles: 11612071 heartbeat IPC: 0.513925 cumulative IPC: 0.514261 (Simulation time: 0 hr 5 min 35 sec) 
Heartbeat CPU 0 instructions: 15000001 cycles: 13550747 heartbeat IPC: 0.515816 cumulative IPC: 0.514571 (Simulation time: 0 hr 6 min 1 sec) 
Heartbeat CPU 0 instructions: 16000000 cycles: 15500753 heartbeat IPC: 0.512818 cumulative IPC: 0.514278 (Simulation time: 0 hr 6 min 28 sec) 
Heartbeat CPU 0 instructions: 17000001 cycles: 17455948 heartbeat IPC: 0.511458 cumulative IPC: 0.513873 (Simulation time: 0 hr 6 min 55 sec) 
Heartbeat CPU 0 instructions: 18000000 cycles: 19413604 heartbeat IPC: 0.510814 cumulative IPC: 0.513489 (Simulation time: 0 hr 7 min 21 sec) 
Heartbeat CPU 0 instructions: 19000000 cycles: 21373062 heartbeat IPC: 0.510345 cumulative IPC: 0.513138 (Simulation time: 0 hr 7 min 46 sec) 
Heartbeat CPU 0 instructions: 20000000 cycles: 23329168 heartbeat IPC: 0.51122 cumulative IPC: 0.512945 (Simulation time: 0 hr 8 min 14 sec) 
Heartbeat CPU 0 instructions: 21000003 cycles: 25279028 heartbeat IPC: 0.512859 cumulative IPC: 0.512937 (Simulation time: 0 hr 8 min 41 sec) 
Heartbeat CPU 0 instructions: 22000002 cycles: 27235424 heartbeat IPC: 0.511143 cumulative IPC: 0.512787 (Simulation time: 0 hr 9 min 8 sec) 
Heartbeat CPU 0 instructions: 23000002 cycles: 29183629 heartbeat IPC: 0.513293 cumulative IPC: 0.512826 (Simulation time: 0 hr 9 min 34 sec) 
Heartbeat CPU 0 instructions: 24000000 cycles: 31128427 heartbeat IPC: 0.514191 cumulative IPC: 0.512924 (Simulation time: 0 hr 10 min 1 sec) 
Heartbeat CPU 0 instructions: 25000002 cycles: 33079008 heartbeat IPC: 0.512669 cumulative IPC: 0.512907 (Simulation time: 0 hr 10 min 34 sec) 
Heartbeat CPU 0 instructions: 26000001 cycles: 35031738 heartbeat IPC: 0.512103 cumulative IPC: 0.512856 (Simulation time: 0 hr 11 min 3 sec) 
Heartbeat CPU 0 instructions: 27000001 cycles: 36983969 heartbeat IPC: 0.512234 cumulative IPC: 0.51282 (Simulation time: 0 hr 11 min 29 sec) 
Heartbeat CPU 0 instructions: 28000000 cycles: 38938068 heartbeat IPC: 0.511744 cumulative IPC: 0.51276 (Simulation time: 0 hr 11 min 56 sec) 
Heartbeat CPU 0 instructions: 29000000 cycles: 40896136 heartbeat IPC: 0.510707 cumulative IPC: 0.512651 (Simulation time: 0 hr 12 min 28 sec) 
Heartbeat CPU 0 instructions: 30000000 cycles: 42856066 heartbeat IPC: 0.510222 cumulative IPC: 0.512529 (Simulation time: 0 hr 12 min 55 sec) 
Heartbeat CPU 0 instructions: 31000003 cycles: 44822466 heartbeat IPC: 0.508545 cumulative IPC: 0.512338 (Simulation time: 0 hr 13 min 21 sec) 
Heartbeat CPU 0 instructions: 32000000 cycles: 46783815 heartbeat IPC: 0.509852 cumulative IPC: 0.512225 (Simulation time: 0 hr 13 min 49 sec) 
Heartbeat CPU 0 instructions: 33000001 cycles: 48743420 heartbeat IPC: 0.510307 cumulative IPC: 0.512141 (Simulation time: 0 hr 14 min 20 sec) 
Heartbeat CPU 0 instructions: 34000003 cycles: 50696305 heartbeat IPC: 0.512064 cumulative IPC: 0.512138 (Simulation time: 0 hr 14 min 45 sec) 
Heartbeat CPU 0 instructions: 35000002 cycles: 52654098 heartbeat IPC: 0.510779 cumulative IPC: 0.512083 (Simulation time: 0 hr 15 min 15 sec) 
Heartbeat CPU 0 instructions: 36000000 cycles: 54612070 heartbeat IPC: 0.510732 cumulative IPC: 0.512031 (Simulation time: 0 hr 15 min 39 sec) 
Heartbeat CPU 0 instructions: 37000001 cycles: 56571306 heartbeat IPC: 0.510404 cumulative IPC: 0.511971 (Simulation time: 0 hr 16 min 3 sec) 
Heartbeat CPU 0 instructions: 38000001 cycles: 58524079 heartbeat IPC: 0.512092 cumulative IPC: 0.511975 (Simulation time: 0 hr 16 min 29 sec) 
Heartbeat CPU 0 instructions: 39000001 cycles: 60486155 heartbeat IPC: 0.509664 cumulative IPC: 0.511895 (Simulation time: 0 hr 16 min 56 sec) 
Heartbeat CPU 0 instructions: 40000000 cycles: 62435966 heartbeat IPC: 0.51287 cumulative IPC: 0.511927 (Simulation time: 0 hr 17 min 27 sec) 
Heartbeat CPU 0 instructions: 41000000 cycles: 64391165 heartbeat IPC: 0.511457 cumulative IPC: 0.511912 (Simulation time: 0 hr 18 min 0 sec) 
Heartbeat CPU 0 instructions: 42000002 cycles: 66337607 heartbeat IPC: 0.513759 cumulative IPC: 0.51197 (Simulation time: 0 hr 18 min 25 sec) 
Heartbeat CPU 0 instructions: 43000003 cycles: 68290447 heartbeat IPC: 0.512075 cumulative IPC: 0.511973 (Simulation time: 0 hr 18 min 51 sec) 
Heartbeat CPU 0 instructions: 44000000 cycles: 70251585 heartbeat IPC: 0.509906 cumulative IPC: 0.511912 (Simulation time: 0 hr 19 min 16 sec) 
Heartbeat CPU 0 instructions: 45000000 cycles: 72210001 heartbeat IPC: 0.510617 cumulative IPC: 0.511875 (Simulation time: 0 hr 19 min 43 sec) 
Heartbeat CPU 0 instructions: 46000003 cycles: 74165480 heartbeat IPC: 0.511385 cumulative IPC: 0.511861 (Simulation time: 0 hr 20 min 12 sec) 
Heartbeat CPU 0 instructions: 47000002 cycles: 76118640 heartbeat IPC: 0.51199 cumulative IPC: 0.511865 (Simulation time: 0 hr 20 min 41 sec) 
Heartbeat CPU 0 instructions: 48000000 cycles: 78085695 heartbeat IPC: 0.508373 cumulative IPC: 0.511772 (Simulation time: 0 hr 21 min 8 sec) 
Heartbeat CPU 0 instructions: 49000001 cycles: 80041578 heartbeat IPC: 0.511279 cumulative IPC: 0.51176 (Simulation time: 0 hr 21 min 36 sec) 
Heartbeat CPU 0 instructions: 50000001 cycles: 81996693 heartbeat IPC: 0.511479 cumulative IPC: 0.511753 (Simulation time: 0 hr 22 min 7 sec) 
Heartbeat CPU 0 instructions: 51000001 cycles: 83949190 heartbeat IPC: 0.512165 cumulative IPC: 0.511763 (Simulation time: 0 hr 22 min 38 sec) 
Heartbeat CPU 0 instructions: 52000000 cycles: 85896999 heartbeat IPC: 0.513397 cumulative IPC: 0.511801 (Simulation time: 0 hr 23 min 3 sec) 
Heartbeat CPU 0 instructions: 53000000 cycles: 87856338 heartbeat IPC: 0.510376 cumulative IPC: 0.511768 (Simulation time: 0 hr 23 min 28 sec) 
Heartbeat CPU 0 instructions: 54000001 cycles: 89810816 heartbeat IPC: 0.511646 cumulative IPC: 0.511765 (Simulation time: 0 hr 23 min 57 sec) 
Heartbeat CPU 0 instructions: 55000003 cycles: 91768311 heartbeat IPC: 0.510858 cumulative IPC: 0.511745 (Simulation time: 0 hr 24 min 25 sec) 
Heartbeat CPU 0 instructions: 56000000 cycles: 93730507 heartbeat IPC: 0.509632 cumulative IPC: 0.511699 (Simulation time: 0 hr 25 min 1 sec) 
Heartbeat CPU 0 instructions: 57000000 cycles: 95684065 heartbeat IPC: 0.511887 cumulative IPC: 0.511703 (Simulation time: 0 hr 25 min 25 sec) 
Heartbeat CPU 0 instructions: 58000000 cycles: 97630376 heartbeat IPC: 0.513793 cumulative IPC: 0.511746 (Simulation time: 0 hr 25 min 52 sec) 
Heartbeat CPU 0 instructions: 59000000 cycles: 99583517 heartbeat IPC: 0.511996 cumulative IPC: 0.511751 (Simulation time: 0 hr 26 min 16 sec) 
Heartbeat CPU 0 instructions: 60000000 cycles: 101532932 heartbeat IPC: 0.512974 cumulative IPC: 0.511776 (Simulation time: 0 hr 26 min 39 sec) 
Heartbeat CPU 0 instructions: 61000001 cycles: 103484787 heartbeat IPC: 0.512334 cumulative IPC: 0.511787 (Simulation time: 0 hr 27 min 5 sec) 
Heartbeat CPU 0 instructions: 62000001 cycles: 105448234 heartbeat IPC: 0.509308 cumulative IPC: 0.511739 (Simulation time: 0 hr 27 min 31 sec) 
Heartbeat CPU 0 instructions: 63000001 cycles: 107412549 heartbeat IPC: 0.509083 cumulative IPC: 0.511689 (Simulation time: 0 hr 27 min 54 sec) 
Heartbeat CPU 0 instructions: 64000000 cycles: 109359372 heartbeat IPC: 0.513657 cumulative IPC: 0.511725 (Simulation time: 0 hr 28 min 17 sec) 
Heartbeat CPU 0 instructions: 65000002 cycles: 111314745 heartbeat IPC: 0.511412 cumulative IPC: 0.511719 (Simulation time: 0 hr 28 min 50 sec) 
Heartbeat CPU 0 instructions: 66000001 cycles: 113264534 heartbeat IPC: 0.512875 cumulative IPC: 0.51174 (Simulation time: 0 hr 29 min 15 sec) 
Heartbeat CPU 0 instructions: 67000003 cycles: 115226533 heartbeat IPC: 0.509685 cumulative IPC: 0.511704 (Simulation time: 0 hr 29 min 41 sec) 
Heartbeat CPU 0 instructions: 68000000 cycles: 117187726 heartbeat IPC: 0.509892 cumulative IPC: 0.511672 (Simulation time: 0 hr 30 min 10 sec) 
Heartbeat CPU 0 instructions: 69000003 cycles: 119148466 heartbeat IPC: 0.510013 cumulative IPC: 0.511644 (Simulation time: 0 hr 30 min 35 sec) 
Heartbeat CPU 0 instructions: 70000002 cycles: 121100341 heartbeat IPC: 0.512327 cumulative IPC: 0.511655 (Simulation time: 0 hr 31 min 6 sec) 
Heartbeat CPU 0 instructions: 71000000 cycles: 123048917 heartbeat IPC: 0.513194 cumulative IPC: 0.511681 (Simulation time: 0 hr 31 min 33 sec) 
Heartbeat CPU 0 instructions: 72000000 cycles: 125005644 heartbeat IPC: 0.511057 cumulative IPC: 0.51167 (Simulation time: 0 hr 32 min 0 sec) 
Heartbeat CPU 0 instructions: 73000002 cycles: 126964043 heartbeat IPC: 0.510622 cumulative IPC: 0.511654 (Simulation time: 0 hr 32 min 28 sec) 
Heartbeat CPU 0 instructions: 74000001 cycles: 128815436 heartbeat IPC: 0.540133 cumulative IPC: 0.512076 (Simulation time: 0 hr 32 min 54 sec) 
Heartbeat CPU 0 instructions: 75000001 cycles: 130772980 heartbeat IPC: 0.510844 cumulative IPC: 0.512057 (Simulation time: 0 hr 33 min 21 sec) 
Heartbeat CPU 0 instructions: 76000000 cycles: 132735031 heartbeat IPC: 0.50967 cumulative IPC: 0.51202 (Simulation time: 0 hr 33 min 45 sec) 
Heartbeat CPU 0 instructions: 77000002 cycles: 134684010 heartbeat IPC: 0.51309 cumulative IPC: 0.512036 (Simulation time: 0 hr 34 min 7 sec) 
Heartbeat CPU 0 instructions: 78000000 cycles: 136639839 heartbeat IPC: 0.511291 cumulative IPC: 0.512025 (Simulation time: 0 hr 34 min 36 sec) 
Heartbeat CPU 0 instructions: 79000000 cycles: 138601987 heartbeat IPC: 0.509646 cumulative IPC: 0.511991 (Simulation time: 0 hr 35 min 1 sec) 
Heartbeat CPU 0 instructions: 80000000 cycles: 140557326 heartbeat IPC: 0.51142 cumulative IPC: 0.511983 (Simulation time: 0 hr 35 min 27 sec) 
Heartbeat CPU 0 instructions: 81000003 cycles: 142510790 heartbeat IPC: 0.511913 cumulative IPC: 0.511982 (Simulation time: 0 hr 35 min 53 sec) 
Heartbeat CPU 0 instructions: 82000003 cycles: 144467537 heartbeat IPC: 0.511052 cumulative IPC: 0.511969 (Simulation time: 0 hr 36 min 17 sec) 
Heartbeat CPU 0 instructions: 83000001 cycles: 146422832 heartbeat IPC: 0.511431 cumulative IPC: 0.511961 (Simulation time: 0 hr 36 min 40 sec) 
Heartbeat CPU 0 instructions: 84000000 cycles: 148374733 heartbeat IPC: 0.512321 cumulative IPC: 0.511966 (Simulation time: 0 hr 37 min 4 sec) 
Heartbeat CPU 0 instructions: 85000000 cycles: 150347573 heartbeat IPC: 0.506884 cumulative IPC: 0.511898 (Simulation time: 0 hr 37 min 29 sec) 
Heartbeat CPU 0 instructions: 86000002 cycles: 152291787 heartbeat IPC: 0.514348 cumulative IPC: 0.51193 (Simulation time: 0 hr 37 min 54 sec) 
Heartbeat CPU 0 instructions: 87000001 cycles: 154252399 heartbeat IPC: 0.510044 cumulative IPC: 0.511905 (Simulation time: 0 hr 38 min 17 sec) 
Heartbeat CPU 0 instructions: 88000000 cycles: 156211012 heartbeat IPC: 0.510565 cumulative IPC: 0.511888 (Simulation time: 0 hr 38 min 37 sec) 
Heartbeat CPU 0 instructions: 89000003 cycles: 158163878 heartbeat IPC: 0.512069 cumulative IPC: 0.51189 (Simulation time: 0 hr 38 min 58 sec) 
Heartbeat CPU 0 instructions: 90000000 cycles: 160120838 heartbeat IPC: 0.510995 cumulative IPC: 0.511879 (Simulation time: 0 hr 39 min 19 sec) 
Heartbeat CPU 0 instructions: 91000001 cycles: 162073481 heartbeat IPC: 0.512127 cumulative IPC: 0.511882 (Simulation time: 0 hr 39 min 40 sec) 
Heartbeat CPU 0 instructions: 92000000 cycles: 166837269 heartbeat IPC: 0.209917 cumulative IPC: 0.503057 (Simulation time: 0 hr 40 min 22 sec) 
Heartbeat CPU 0 instructions: 93000000 cycles: 171513649 heartbeat IPC: 0.213841 cumulative IPC: 0.494991 (Simulation time: 0 hr 41 min 4 sec) 
Heartbeat CPU 0 instructions: 94000000 cycles: 175037952 heartbeat IPC: 0.283744 cumulative IPC: 0.490643 (Simulation time: 0 hr 41 min 37 sec) 
Heartbeat CPU 0 instructions: 95000000 cycles: 177437087 heartbeat IPC: 0.416817 cumulative IPC: 0.489622 (Simulation time: 0 hr 41 min 58 sec) 
Heartbeat CPU 0 instructions: 96000000 cycles: 179020803 heartbeat IPC: 0.631426 cumulative IPC: 0.490904 (Simulation time: 0 hr 42 min 15 sec) 
Heartbeat CPU 0 instructions: 97000002 cycles: 180395618 heartbeat IPC: 0.727372 cumulative IPC: 0.492746 (Simulation time: 0 hr 42 min 32 sec) 
Heartbeat CPU 0 instructions: 98000003 cycles: 181767090 heartbeat IPC: 0.729144 cumulative IPC: 0.494568 (Simulation time: 0 hr 42 min 47 sec) 
Heartbeat CPU 0 instructions: 99000000 cycles: 183128856 heartbeat IPC: 0.734338 cumulative IPC: 0.496389 (Simulation time: 0 hr 43 min 3 sec) 
Heartbeat CPU 0 instructions: 100000000 cycles: 184484195 heartbeat IPC: 0.737823 cumulative IPC: 0.4982 (Simulation time: 0 hr 43 min 16 sec) 
Heartbeat CPU 0 instructions: 101000001 cycles: 185858457 heartbeat IPC: 0.727664 cumulative IPC: 0.499933 (Simulation time: 0 hr 43 min 29 sec) 
Heartbeat CPU 0 instructions: 102000000 cycles: 187236376 heartbeat IPC: 0.725731 cumulative IPC: 0.501629 (Simulation time: 0 hr 43 min 43 sec) 
Heartbeat CPU 0 instructions: 103000002 cycles: 188617521 heartbeat IPC: 0.724038 cumulative IPC: 0.503291 (Simulation time: 0 hr 43 min 56 sec) 
Heartbeat CPU 0 instructions: 104000000 cycles: 189993170 heartbeat IPC: 0.726928 cumulative IPC: 0.504944 (Simulation time: 0 hr 44 min 9 sec) 
Heartbeat CPU 0 instructions: 105000003 cycles: 191367347 heartbeat IPC: 0.72771 cumulative IPC: 0.506576 (Simulation time: 0 hr 44 min 24 sec) 
Heartbeat CPU 0 instructions: 106000002 cycles: 192732356 heartbeat IPC: 0.732595 cumulative IPC: 0.50821 (Simulation time: 0 hr 44 min 37 sec) 
Heartbeat CPU 0 instructions: 107000002 cycles: 194114496 heartbeat IPC: 0.723516 cumulative IPC: 0.509773 (Simulation time: 0 hr 44 min 50 sec) 
Heartbeat CPU 0 instructions: 108000000 cycles: 195495577 heartbeat IPC: 0.724069 cumulative IPC: 0.511318 (Simulation time: 0 hr 45 min 4 sec) 
Heartbeat CPU 0 instructions: 109000001 cycles: 196862545 heartbeat IPC: 0.731547 cumulative IPC: 0.512877 (Simulation time: 0 hr 45 min 17 sec) 
Heartbeat CPU 0 instructions: 110000001 cycles: 198244715 heartbeat IPC: 0.7235 cumulative IPC: 0.514375 (Simulation time: 0 hr 45 min 28 sec) 
Finished CPU 0 instructions: 100000003 cycles: 194410799 cummulative IPC: 0.514375 (Simulation time: 0 hr 45 min 28 sec) 

ChampSim completed all CPUs

Region of Interest Statistics

CPU 0 cummulative IPC: 0.514375 instructions: 100000003 cycles: 194410799
LLC TOTAL     ACCESS:    2445955  HIT:     254782  MISS:    2191173
LLC LOAD      ACCESS:    1321299  HIT:       1770  MISS:    1319529
LLC RFO       ACCESS:     423300  HIT:          0  MISS:     423300
LLC PREFETCH  ACCESS:          0  HIT:          0  MISS:          0
LLC WRITEBACK ACCESS:     701356  HIT:     253012  MISS:     448344
