
*** ChampSim Multicore Out-of-Order Simulator ***

Warmup Instructions: 10000000
Simulation Instructions: 100000000
Configuration: 1
Number of CPUs: 1
LLC sets: 2048
LLC ways: 16
Off-chip DRAM Channels: 1 Width: 64-bit Data Rate: 1600 MT/s

CPU 0 runs /datasets/cs240c-wi22-a00-public/data/Assignment2-gz/lbm_564B.trace.gz
Heartbeat CPU 0 instructions: 1000000 cycles: 390238 heartbeat IPC: 2.56254 cumulative IPC: 2.56254 (Simulation time: 0 hr 0 min 19 sec) 
Heartbeat CPU 0 instructions: 2000003 cycles: 785321 heartbeat IPC: 2.53112 cumulative IPC: 2.54673 (Simulation time: 0 hr 0 min 39 sec) 
Heartbeat CPU 0 instructions: 3000002 cycles: 1175571 heartbeat IPC: 2.56246 cumulative IPC: 2.55195 (Simulation time: 0 hr 1 min 0 sec) 
Heartbeat CPU 0 instructions: 4000000 cycles: 1565781 heartbeat IPC: 2.56272 cumulative IPC: 2.55464 (Simulation time: 0 hr 1 min 25 sec) 
Heartbeat CPU 0 instructions: 5000000 cycles: 1960940 heartbeat IPC: 2.53063 cumulative IPC: 2.5498 (Simulation time: 0 hr 1 min 45 sec) 
Heartbeat CPU 0 instructions: 6000002 cycles: 2351139 heartbeat IPC: 2.5628 cumulative IPC: 2.55196 (Simulation time: 0 hr 2 min 7 sec) 
Heartbeat CPU 0 instructions: 7000001 cycles: 2741413 heartbeat IPC: 2.5623 cumulative IPC: 2.55343 (Simulation time: 0 hr 2 min 28 sec) 
Heartbeat CPU 0 instructions: 8000000 cycles: 3136504 heartbeat IPC: 2.53106 cumulative IPC: 2.55061 (Simulation time: 0 hr 2 min 49 sec) 
Heartbeat CPU 0 instructions: 9000000 cycles: 3526748 heartbeat IPC: 2.5625 cumulative IPC: 2.55193 (Simulation time: 0 hr 3 min 9 sec) 
Heartbeat CPU 0 instructions: 10000002 cycles: 3916970 heartbeat IPC: 2.56265 cumulative IPC: 2.55299 (Simulation time: 0 hr 3 min 27 sec) 

Warmup complete CPU 0 instructions: 10000002 cycles: 3916970 (Simulation time: 0 hr 3 min 27 sec) 

Heartbeat CPU 0 instructions: 11000000 cycles: 5516143 heartbeat IPC: 0.625322 cumulative IPC: 0.625322 (Simulation time: 0 hr 3 min 52 sec) 
Heartbeat CPU 0 instructions: 12000000 cycles: 7077690 heartbeat IPC: 0.640391 cumulative IPC: 0.632767 (Simulation time: 0 hr 4 min 15 sec) 
Heartbeat CPU 0 instructions: 13000001 cycles: 8705892 heartbeat IPC: 0.614175 cumulative IPC: 0.626446 (Simulation time: 0 hr 4 min 41 sec) 
Heartbeat CPU 0 instructions: 14000003 cycles: 10385017 heartbeat IPC: 0.595549 cumulative IPC: 0.618425 (Simulation time: 0 hr 5 min 8 sec) 
Heartbeat CPU 0 instructions: 15000000 cycles: 11969132 heartbeat IPC: 0.631265 cumulative IPC: 0.620951 (Simulation time: 0 hr 5 min 32 sec) 
Heartbeat CPU 0 instructions: 16000000 cycles: 13541862 heartbeat IPC: 0.635837 cumulative IPC: 0.623383 (Simulation time: 0 hr 5 min 56 sec) 
Heartbeat CPU 0 instructions: 17000000 cycles: 15170631 heartbeat IPC: 0.613961 cumulative IPC: 0.62202 (Simulation time: 0 hr 6 min 24 sec) 
Heartbeat CPU 0 instructions: 18000000 cycles: 16840925 heartbeat IPC: 0.598697 cumulative IPC: 0.619005 (Simulation time: 0 hr 6 min 51 sec) 
Heartbeat CPU 0 instructions: 19000003 cycles: 18382389 heartbeat IPC: 0.648736 cumulative IPC: 0.622174 (Simulation time: 0 hr 7 min 16 sec) 
Heartbeat CPU 0 instructions: 20000000 cycles: 19986117 heartbeat IPC: 0.623545 cumulative IPC: 0.62231 (Simulation time: 0 hr 7 min 41 sec) 
Heartbeat CPU 0 instructions: 21000003 cycles: 21596251 heartbeat IPC: 0.621068 cumulative IPC: 0.622197 (Simulation time: 0 hr 8 min 6 sec) 
Heartbeat CPU 0 instructions: 22000003 cycles: 23872096 heartbeat IPC: 0.439397 cumulative IPC: 0.601349 (Simulation time: 0 hr 8 min 35 sec) 
Heartbeat CPU 0 instructions: 23000002 cycles: 26367973 heartbeat IPC: 0.40066 cumulative IPC: 0.579039 (Simulation time: 0 hr 9 min 7 sec) 
Heartbeat CPU 0 instructions: 24000000 cycles: 33507974 heartbeat IPC: 0.140056 cumulative IPC: 0.473117 (Simulation time: 0 hr 10 min 9 sec) 
Heartbeat CPU 0 instructions: 25000003 cycles: 36501104 heartbeat IPC: 0.334099 cumulative IPC: 0.460347 (Simulation time: 0 hr 10 min 46 sec) 
Heartbeat CPU 0 instructions: 26000002 cycles: 38732644 heartbeat IPC: 0.448121 cumulative IPC: 0.459563 (Simulation time: 0 hr 11 min 19 sec) 
Heartbeat CPU 0 instructions: 27000001 cycles: 40486177 heartbeat IPC: 0.570277 cumulative IPC: 0.464872 (Simulation time: 0 hr 11 min 45 sec) 
Heartbeat CPU 0 instructions: 28000000 cycles: 42184525 heartbeat IPC: 0.588807 cumulative IPC: 0.470372 (Simulation time: 0 hr 12 min 13 sec) 
Heartbeat CPU 0 instructions: 29000003 cycles: 43892385 heartbeat IPC: 0.58553 cumulative IPC: 0.475292 (Simulation time: 0 hr 12 min 42 sec) 
Heartbeat CPU 0 instructions: 30000000 cycles: 45519548 heartbeat IPC: 0.614565 cumulative IPC: 0.480739 (Simulation time: 0 hr 13 min 9 sec) 
Heartbeat CPU 0 instructions: 31000000 cycles: 47102997 heartbeat IPC: 0.631533 cumulative IPC: 0.486268 (Simulation time: 0 hr 13 min 34 sec) 
Heartbeat CPU 0 instructions: 32000000 cycles: 48701898 heartbeat IPC: 0.62543 cumulative IPC: 0.491237 (Simulation time: 0 hr 14 min 1 sec) 
Heartbeat CPU 0 instructions: 33000001 cycles: 50441382 heartbeat IPC: 0.574884 cumulative IPC: 0.494364 (Simulation time: 0 hr 14 min 27 sec) 
Heartbeat CPU 0 instructions: 34000001 cycles: 51948050 heartbeat IPC: 0.663716 cumulative IPC: 0.499676 (Simulation time: 0 hr 14 min 51 sec) 
Heartbeat CPU 0 instructions: 35000002 cycles: 53465652 heartbeat IPC: 0.658935 cumulative IPC: 0.504554 (Simulation time: 0 hr 15 min 16 sec) 
Heartbeat CPU 0 instructions: 36000000 cycles: 55094862 heartbeat IPC: 0.613793 cumulative IPC: 0.508032 (Simulation time: 0 hr 15 min 41 sec) 
Heartbeat CPU 0 instructions: 37000000 cycles: 56773591 heartbeat IPC: 0.595689 cumulative IPC: 0.510816 (Simulation time: 0 hr 16 min 7 sec) 
Heartbeat CPU 0 instructions: 38000002 cycles: 58288202 heartbeat IPC: 0.660237 cumulative IPC: 0.514978 (Simulation time: 0 hr 16 min 32 sec) 
Heartbeat CPU 0 instructions: 39000002 cycles: 59889575 heartbeat IPC: 0.624464 cumulative IPC: 0.518111 (Simulation time: 0 hr 16 min 58 sec) 
Heartbeat CPU 0 instructions: 40000000 cycles: 61613248 heartbeat IPC: 0.580155 cumulative IPC: 0.519964 (Simulation time: 0 hr 17 min 25 sec) 
Heartbeat CPU 0 instructions: 41000000 cycles: 63207383 heartbeat IPC: 0.627299 cumulative IPC: 0.52285 (Simulation time: 0 hr 17 min 49 sec) 
Heartbeat CPU 0 instructions: 42000002 cycles: 64773959 heartbeat IPC: 0.638336 cumulative IPC: 0.525823 (Simulation time: 0 hr 18 min 12 sec) 
Heartbeat CPU 0 instructions: 43000001 cycles: 66404233 heartbeat IPC: 0.613393 cumulative IPC: 0.528108 (Simulation time: 0 hr 18 min 36 sec) 
Heartbeat CPU 0 instructions: 44000000 cycles: 68067885 heartbeat IPC: 0.601087 cumulative IPC: 0.53 (Simulation time: 0 hr 19 min 1 sec) 
Heartbeat CPU 0 instructions: 45000001 cycles: 69626966 heartbeat IPC: 0.641404 cumulative IPC: 0.532643 (Simulation time: 0 hr 19 min 28 sec) 
Heartbeat CPU 0 instructions: 46000002 cycles: 71203084 heartbeat IPC: 0.634471 cumulative IPC: 0.535029 (Simulation time: 0 hr 19 min 53 sec) 
Heartbeat CPU 0 instructions: 47000001 cycles: 72868290 heartbeat IPC: 0.600526 cumulative IPC: 0.53661 (Simulation time: 0 hr 20 min 18 sec) 
Heartbeat CPU 0 instructions: 48000000 cycles: 74445285 heartbeat IPC: 0.634117 cumulative IPC: 0.538791 (Simulation time: 0 hr 20 min 42 sec) 
Heartbeat CPU 0 instructions: 49000001 cycles: 76016725 heartbeat IPC: 0.63636 cumulative IPC: 0.540917 (Simulation time: 0 hr 21 min 7 sec) 
Heartbeat CPU 0 instructions: 50000000 cycles: 77673098 heartbeat IPC: 0.603728 cumulative IPC: 0.542328 (Simulation time: 0 hr 21 min 33 sec) 
Heartbeat CPU 0 instructions: 51000002 cycles: 79296243 heartbeat IPC: 0.616089 cumulative IPC: 0.543916 (Simulation time: 0 hr 21 min 59 sec) 
Heartbeat CPU 0 instructions: 52000000 cycles: 80882783 heartbeat IPC: 0.630301 cumulative IPC: 0.545697 (Simulation time: 0 hr 22 min 25 sec) 
Heartbeat CPU 0 instructions: 53000001 cycles: 82471320 heartbeat IPC: 0.629511 cumulative IPC: 0.547392 (Simulation time: 0 hr 22 min 50 sec) 
Heartbeat CPU 0 instructions: 54000001 cycles: 84119419 heartbeat IPC: 0.60676 cumulative IPC: 0.548612 (Simulation time: 0 hr 23 min 14 sec) 
Heartbeat CPU 0 instructions: 55000003 cycles: 85743272 heartbeat IPC: 0.615821 cumulative IPC: 0.549945 (Simulation time: 0 hr 23 min 37 sec) 
Heartbeat CPU 0 instructions: 56000000 cycles: 87332943 heartbeat IPC: 0.629059 cumulative IPC: 0.551453 (Simulation time: 0 hr 24 min 0 sec) 
Heartbeat CPU 0 instructions: 57000001 cycles: 88994916 heartbeat IPC: 0.601695 cumulative IPC: 0.552435 (Simulation time: 0 hr 24 min 24 sec) 
Heartbeat CPU 0 instructions: 58000002 cycles: 90647593 heartbeat IPC: 0.60508 cumulative IPC: 0.553438 (Simulation time: 0 hr 24 min 49 sec) 
Heartbeat CPU 0 instructions: 59000001 cycles: 92253812 heartbeat IPC: 0.62258 cumulative IPC: 0.554695 (Simulation time: 0 hr 25 min 13 sec) 
Heartbeat CPU 0 instructions: 60000000 cycles: 93883176 heartbeat IPC: 0.613736 cumulative IPC: 0.555764 (Simulation time: 0 hr 25 min 37 sec) 
Heartbeat CPU 0 instructions: 61000003 cycles: 95573074 heartbeat IPC: 0.591753 cumulative IPC: 0.556428 (Simulation time: 0 hr 26 min 1 sec) 
Heartbeat CPU 0 instructions: 62000003 cycles: 97189038 heartbeat IPC: 0.618826 cumulative IPC: 0.557509 (Simulation time: 0 hr 26 min 24 sec) 
Heartbeat CPU 0 instructions: 63000000 cycles: 98841902 heartbeat IPC: 0.605009 cumulative IPC: 0.558336 (Simulation time: 0 hr 26 min 48 sec) 
Heartbeat CPU 0 instructions: 64000000 cycles: 100510420 heartbeat IPC: 0.599334 cumulative IPC: 0.559044 (Simulation time: 0 hr 27 min 11 sec) 
Heartbeat CPU 0 instructions: 65000003 cycles: 102133071 heartbeat IPC: 0.616277 cumulative IPC: 0.55999 (Simulation time: 0 hr 27 min 35 sec) 
Heartbeat CPU 0 instructions: 66000001 cycles: 103720316 heartbeat IPC: 0.630021 cumulative IPC: 0.561103 (Simulation time: 0 hr 27 min 57 sec) 
Heartbeat CPU 0 instructions: 67000001 cycles: 105429007 heartbeat IPC: 0.585243 cumulative IPC: 0.56151 (Simulation time: 0 hr 28 min 21 sec) 
Heartbeat CPU 0 instructions: 68000000 cycles: 107191148 heartbeat IPC: 0.567491 cumulative IPC: 0.561612 (Simulation time: 0 hr 28 min 45 sec) 
Heartbeat CPU 0 instructions: 69000003 cycles: 108784560 heartbeat IPC: 0.627586 cumulative IPC: 0.562614 (Simulation time: 0 hr 29 min 8 sec) 
Heartbeat CPU 0 instructions: 70000003 cycles: 110421084 heartbeat IPC: 0.611051 cumulative IPC: 0.563359 (Simulation time: 0 hr 29 min 31 sec) 
Heartbeat CPU 0 instructions: 71000000 cycles: 112173619 heartbeat IPC: 0.5706 cumulative IPC: 0.563476 (Simulation time: 0 hr 29 min 57 sec) 
Heartbeat CPU 0 instructions: 72000000 cycles: 113771071 heartbeat IPC: 0.625997 cumulative IPC: 0.564385 (Simulation time: 0 hr 30 min 22 sec) 
Heartbeat CPU 0 instructions: 73000003 cycles: 115399105 heartbeat IPC: 0.61424 cumulative IPC: 0.565113 (Simulation time: 0 hr 30 min 47 sec) 
Heartbeat CPU 0 instructions: 74000002 cycles: 117206961 heartbeat IPC: 0.553141 cumulative IPC: 0.564922 (Simulation time: 0 hr 31 min 17 sec) 
Heartbeat CPU 0 instructions: 75000002 cycles: 118821673 heartbeat IPC: 0.619305 cumulative IPC: 0.565686 (Simulation time: 0 hr 31 min 45 sec) 
Heartbeat CPU 0 instructions: 76000000 cycles: 120485294 heartbeat IPC: 0.601097 cumulative IPC: 0.566192 (Simulation time: 0 hr 32 min 10 sec) 
Heartbeat CPU 0 instructions: 77000003 cycles: 122308759 heartbeat IPC: 0.548408 cumulative IPC: 0.565918 (Simulation time: 0 hr 32 min 38 sec) 
Heartbeat CPU 0 instructions: 78000002 cycles: 123930065 heartbeat IPC: 0.616786 cumulative IPC: 0.566605 (Simulation time: 0 hr 33 min 3 sec) 
Heartbeat CPU 0 instructions: 79000000 cycles: 125577804 heartbeat IPC: 0.606891 cumulative IPC: 0.56715 (Simulation time: 0 hr 33 min 28 sec) 
Heartbeat CPU 0 instructions: 80000000 cycles: 127368636 heartbeat IPC: 0.5584 cumulative IPC: 0.567024 (Simulation time: 0 hr 33 min 53 sec) 
Heartbeat CPU 0 instructions: 81000003 cycles: 128979577 heartbeat IPC: 0.620757 cumulative IPC: 0.567716 (Simulation time: 0 hr 34 min 20 sec) 
Heartbeat CPU 0 instructions: 82000000 cycles: 130671080 heartbeat IPC: 0.591188 cumulative IPC: 0.568029 (Simulation time: 0 hr 34 min 45 sec) 
Heartbeat CPU 0 instructions: 83000003 cycles: 132461826 heartbeat IPC: 0.558428 cumulative IPC: 0.567895 (Simulation time: 0 hr 35 min 11 sec) 
Heartbeat CPU 0 instructions: 84000000 cycles: 134157837 heartbeat IPC: 0.589617 cumulative IPC: 0.568178 (Simulation time: 0 hr 35 min 35 sec) 
Heartbeat CPU 0 instructions: 85000002 cycles: 135757068 heartbeat IPC: 0.625302 cumulative IPC: 0.568871 (Simulation time: 0 hr 36 min 3 sec) 
Heartbeat CPU 0 instructions: 86000002 cycles: 137575960 heartbeat IPC: 0.549785 cumulative IPC: 0.568611 (Simulation time: 0 hr 36 min 28 sec) 
Heartbeat CPU 0 instructions: 87000003 cycles: 139287374 heartbeat IPC: 0.584313 cumulative IPC: 0.56881 (Simulation time: 0 hr 36 min 52 sec) 
Heartbeat CPU 0 instructions: 88000000 cycles: 140864414 heartbeat IPC: 0.634097 cumulative IPC: 0.569562 (Simulation time: 0 hr 37 min 16 sec) 
Heartbeat CPU 0 instructions: 89000003 cycles: 142678871 heartbeat IPC: 0.551131 cumulative IPC: 0.569321 (Simulation time: 0 hr 37 min 41 sec) 
Heartbeat CPU 0 instructions: 90000001 cycles: 144392834 heartbeat IPC: 0.583442 cumulative IPC: 0.569493 (Simulation time: 0 hr 38 min 5 sec) 
Heartbeat CPU 0 instructions: 91000000 cycles: 145930448 heartbeat IPC: 0.650358 cumulative IPC: 0.570368 (Simulation time: 0 hr 38 min 27 sec) 
Heartbeat CPU 0 instructions: 92000000 cycles: 147781470 heartbeat IPC: 0.540242 cumulative IPC: 0.569981 (Simulation time: 0 hr 38 min 49 sec) 
Heartbeat CPU 0 instructions: 93000003 cycles: 149591090 heartbeat IPC: 0.552604 cumulative IPC: 0.569765 (Simulation time: 0 hr 39 min 10 sec) 
Heartbeat CPU 0 instructions: 94000002 cycles: 151168779 heartbeat IPC: 0.633838 cumulative IPC: 0.570451 (Simulation time: 0 hr 39 min 31 sec) 
Heartbeat CPU 0 instructions: 95000001 cycles: 152950855 heartbeat IPC: 0.561143 cumulative IPC: 0.57034 (Simulation time: 0 hr 39 min 54 sec) 
Heartbeat CPU 0 instructions: 96000000 cycles: 154722114 heartbeat IPC: 0.56457 cumulative IPC: 0.570272 (Simulation time: 0 hr 40 min 15 sec) 
Heartbeat CPU 0 instructions: 97000000 cycles: 156305055 heartbeat IPC: 0.631736 cumulative IPC: 0.570911 (Simulation time: 0 hr 40 min 35 sec) 
Heartbeat CPU 0 instructions: 98000000 cycles: 158151614 heartbeat IPC: 0.541548 cumulative IPC: 0.570559 (Simulation time: 0 hr 40 min 55 sec) 
Heartbeat CPU 0 instructions: 99000003 cycles: 159907420 heartbeat IPC: 0.569541 cumulative IPC: 0.570548 (Simulation time: 0 hr 41 min 15 sec) 
Heartbeat CPU 0 instructions: 100000000 cycles: 161497477 heartbeat IPC: 0.628906 cumulative IPC: 0.571137 (Simulation time: 0 hr 41 min 33 sec) 
Heartbeat CPU 0 instructions: 101000002 cycles: 163376198 heartbeat IPC: 0.532278 cumulative IPC: 0.570679 (Simulation time: 0 hr 41 min 52 sec) 
Heartbeat CPU 0 instructions: 102000002 cycles: 165087718 heartbeat IPC: 0.584276 cumulative IPC: 0.570823 (Simulation time: 0 hr 42 min 10 sec) 
Heartbeat CPU 0 instructions: 103000001 cycles: 166673755 heartbeat IPC: 0.630502 cumulative IPC: 0.571405 (Simulation time: 0 hr 42 min 28 sec) 
Heartbeat CPU 0 instructions: 104000000 cycles: 168536883 heartbeat IPC: 0.536731 cumulative IPC: 0.571012 (Simulation time: 0 hr 42 min 47 sec) 
Heartbeat CPU 0 instructions: 105000001 cycles: 170311794 heartbeat IPC: 0.563409 cumulative IPC: 0.570931 (Simulation time: 0 hr 43 min 4 sec) 
Heartbeat CPU 0 instructions: 106000003 cycles: 171908022 heartbeat IPC: 0.626478 cumulative IPC: 0.571459 (Simulation time: 0 hr 43 min 20 sec) 
Heartbeat CPU 0 instructions: 107000000 cycles: 173784111 heartbeat IPC: 0.533022 cumulative IPC: 0.571034 (Simulation time: 0 hr 43 min 37 sec) 
Heartbeat CPU 0 instructions: 108000000 cycles: 175571836 heartbeat IPC: 0.55937 cumulative IPC: 0.570913 (Simulation time: 0 hr 43 min 52 sec) 
Heartbeat CPU 0 instructions: 109000003 cycles: 177161041 heartbeat IPC: 0.629247 cumulative IPC: 0.571448 (Simulation time: 0 hr 44 min 7 sec) 
Heartbeat CPU 0 instructions: 110000001 cycles: 179061985 heartbeat IPC: 0.526053 cumulative IPC: 0.570955 (Simulation time: 0 hr 44 min 22 sec) 
Finished CPU 0 instructions: 100000003 cycles: 175145016 cummulative IPC: 0.570955 (Simulation time: 0 hr 44 min 22 sec) 

ChampSim completed all CPUs

Region of Interest Statistics

CPU 0 cummulative IPC: 0.570955 instructions: 100000003 cycles: 175145016
LLC TOTAL     ACCESS:    6027275  HIT:    1698868  MISS:    4328407
LLC LOAD      ACCESS:     843451  HIT:        132  MISS:     843319
LLC RFO       ACCESS:    2591805  HIT:     550913  MISS:    2040892
LLC PREFETCH  ACCESS:          0  HIT:          0  MISS:          0
LLC WRITEBACK ACCESS:    2592019  HIT:    1147823  MISS:    1444196
