
*** ChampSim Multicore Out-of-Order Simulator ***

Warmup Instructions: 10000000
Simulation Instructions: 100000000
Configuration: 1
Number of CPUs: 1
LLC sets: 2048
LLC ways: 16
Off-chip DRAM Channels: 1 Width: 64-bit Data Rate: 1600 MT/s

CPU 0 runs /datasets/cs240c-wi22-a00-public/data/Assignment2-gz/gcc_13B.trace.gz
Heartbeat CPU 0 instructions: 1000000 cycles: 644728 heartbeat IPC: 1.55104 cumulative IPC: 1.55104 (Simulation time: 0 hr 0 min 24 sec) 
Heartbeat CPU 0 instructions: 2000001 cycles: 1257217 heartbeat IPC: 1.63268 cumulative IPC: 1.59082 (Simulation time: 0 hr 0 min 50 sec) 
Heartbeat CPU 0 instructions: 3000000 cycles: 1735178 heartbeat IPC: 2.09222 cumulative IPC: 1.72893 (Simulation time: 0 hr 1 min 16 sec) 
Heartbeat CPU 0 instructions: 4000000 cycles: 2212947 heartbeat IPC: 2.09306 cumulative IPC: 1.80754 (Simulation time: 0 hr 1 min 38 sec) 
Heartbeat CPU 0 instructions: 5000002 cycles: 2691200 heartbeat IPC: 2.09095 cumulative IPC: 1.85791 (Simulation time: 0 hr 2 min 1 sec) 
Heartbeat CPU 0 instructions: 6000001 cycles: 3169175 heartbeat IPC: 2.09216 cumulative IPC: 1.89324 (Simulation time: 0 hr 2 min 26 sec) 
Heartbeat CPU 0 instructions: 7000003 cycles: 3648826 heartbeat IPC: 2.08485 cumulative IPC: 1.91843 (Simulation time: 0 hr 2 min 53 sec) 
Heartbeat CPU 0 instructions: 8000000 cycles: 4129457 heartbeat IPC: 2.08059 cumulative IPC: 1.9373 (Simulation time: 0 hr 3 min 20 sec) 
Heartbeat CPU 0 instructions: 9000001 cycles: 4869661 heartbeat IPC: 1.35098 cumulative IPC: 1.84818 (Simulation time: 0 hr 3 min 45 sec) 
Heartbeat CPU 0 instructions: 10000001 cycles: 5577674 heartbeat IPC: 1.4124 cumulative IPC: 1.79286 (Simulation time: 0 hr 4 min 12 sec) 

Warmup complete CPU 0 instructions: 10000001 cycles: 5577674 (Simulation time: 0 hr 4 min 12 sec) 

Heartbeat CPU 0 instructions: 11000000 cycles: 13772119 heartbeat IPC: 0.122034 cumulative IPC: 0.122034 (Simulation time: 0 hr 4 min 51 sec) 
Heartbeat CPU 0 instructions: 12000000 cycles: 21951896 heartbeat IPC: 0.122253 cumulative IPC: 0.122143 (Simulation time: 0 hr 5 min 29 sec) 
Heartbeat CPU 0 instructions: 13000000 cycles: 29550978 heartbeat IPC: 0.131595 cumulative IPC: 0.125139 (Simulation time: 0 hr 6 min 6 sec) 
Heartbeat CPU 0 instructions: 14000000 cycles: 36465732 heartbeat IPC: 0.144618 cumulative IPC: 0.1295 (Simulation time: 0 hr 6 min 42 sec) 
Heartbeat CPU 0 instructions: 15000000 cycles: 40339820 heartbeat IPC: 0.258125 cumulative IPC: 0.143835 (Simulation time: 0 hr 7 min 18 sec) 
Heartbeat CPU 0 instructions: 16000000 cycles: 44690133 heartbeat IPC: 0.229869 cumulative IPC: 0.153404 (Simulation time: 0 hr 7 min 50 sec) 
Heartbeat CPU 0 instructions: 17000000 cycles: 49235210 heartbeat IPC: 0.220018 cumulative IPC: 0.160339 (Simulation time: 0 hr 8 min 24 sec) 
Heartbeat CPU 0 instructions: 18000002 cycles: 53754775 heartbeat IPC: 0.221261 cumulative IPC: 0.166054 (Simulation time: 0 hr 8 min 59 sec) 
Heartbeat CPU 0 instructions: 19000002 cycles: 58308313 heartbeat IPC: 0.219609 cumulative IPC: 0.170679 (Simulation time: 0 hr 9 min 34 sec) 
Heartbeat CPU 0 instructions: 20000000 cycles: 62869436 heartbeat IPC: 0.219244 cumulative IPC: 0.174545 (Simulation time: 0 hr 10 min 11 sec) 
Heartbeat CPU 0 instructions: 21000000 cycles: 67096643 heartbeat IPC: 0.236563 cumulative IPC: 0.178807 (Simulation time: 0 hr 10 min 49 sec) 
Heartbeat CPU 0 instructions: 22000001 cycles: 72152222 heartbeat IPC: 0.197801 cumulative IPC: 0.180249 (Simulation time: 0 hr 11 min 28 sec) 
Heartbeat CPU 0 instructions: 23000002 cycles: 79814440 heartbeat IPC: 0.130511 cumulative IPC: 0.175115 (Simulation time: 0 hr 12 min 8 sec) 
Heartbeat CPU 0 instructions: 24000000 cycles: 87784405 heartbeat IPC: 0.125471 cumulative IPC: 0.170302 (Simulation time: 0 hr 12 min 45 sec) 
Heartbeat CPU 0 instructions: 25000000 cycles: 95760807 heartbeat IPC: 0.12537 cumulative IPC: 0.166328 (Simulation time: 0 hr 13 min 22 sec) 
Heartbeat CPU 0 instructions: 26000001 cycles: 103167548 heartbeat IPC: 0.135012 cumulative IPC: 0.163951 (Simulation time: 0 hr 13 min 58 sec) 
Heartbeat CPU 0 instructions: 27000001 cycles: 109879116 heartbeat IPC: 0.148996 cumulative IPC: 0.162989 (Simulation time: 0 hr 14 min 34 sec) 
Heartbeat CPU 0 instructions: 28000000 cycles: 113951565 heartbeat IPC: 0.245552 cumulative IPC: 0.166092 (Simulation time: 0 hr 15 min 9 sec) 
Heartbeat CPU 0 instructions: 29000000 cycles: 118213623 heartbeat IPC: 0.234628 cumulative IPC: 0.168685 (Simulation time: 0 hr 15 min 46 sec) 
Heartbeat CPU 0 instructions: 30000001 cycles: 122478883 heartbeat IPC: 0.234453 cumulative IPC: 0.171085 (Simulation time: 0 hr 16 min 21 sec) 
Heartbeat CPU 0 instructions: 31000000 cycles: 126745984 heartbeat IPC: 0.234351 cumulative IPC: 0.173313 (Simulation time: 0 hr 16 min 53 sec) 
Heartbeat CPU 0 instructions: 32000000 cycles: 130986814 heartbeat IPC: 0.235803 cumulative IPC: 0.175426 (Simulation time: 0 hr 17 min 25 sec) 
Heartbeat CPU 0 instructions: 33000000 cycles: 135279943 heartbeat IPC: 0.23293 cumulative IPC: 0.177329 (Simulation time: 0 hr 17 min 56 sec) 
Heartbeat CPU 0 instructions: 34000000 cycles: 140070784 heartbeat IPC: 0.208732 cumulative IPC: 0.178448 (Simulation time: 0 hr 18 min 30 sec) 
Heartbeat CPU 0 instructions: 35000000 cycles: 155878380 heartbeat IPC: 0.0632607 cumulative IPC: 0.166333 (Simulation time: 0 hr 19 min 40 sec) 
Heartbeat CPU 0 instructions: 36000000 cycles: 159846807 heartbeat IPC: 0.251989 cumulative IPC: 0.168537 (Simulation time: 0 hr 20 min 6 sec) 
Heartbeat CPU 0 instructions: 37000003 cycles: 163792573 heartbeat IPC: 0.253437 cumulative IPC: 0.170654 (Simulation time: 0 hr 20 min 34 sec) 
Heartbeat CPU 0 instructions: 38000000 cycles: 167734955 heartbeat IPC: 0.253653 cumulative IPC: 0.172672 (Simulation time: 0 hr 20 min 59 sec) 
Heartbeat CPU 0 instructions: 39000000 cycles: 171573413 heartbeat IPC: 0.260521 cumulative IPC: 0.174703 (Simulation time: 0 hr 21 min 25 sec) 
Heartbeat CPU 0 instructions: 40000000 cycles: 175294678 heartbeat IPC: 0.268726 cumulative IPC: 0.176765 (Simulation time: 0 hr 21 min 50 sec) 
Heartbeat CPU 0 instructions: 41000000 cycles: 178990656 heartbeat IPC: 0.270564 cumulative IPC: 0.178764 (Simulation time: 0 hr 22 min 15 sec) 
Heartbeat CPU 0 instructions: 42000000 cycles: 182713183 heartbeat IPC: 0.268635 cumulative IPC: 0.180653 (Simulation time: 0 hr 22 min 41 sec) 
Heartbeat CPU 0 instructions: 43000002 cycles: 186437452 heartbeat IPC: 0.26851 cumulative IPC: 0.182462 (Simulation time: 0 hr 23 min 8 sec) 
Heartbeat CPU 0 instructions: 44000000 cycles: 190162210 heartbeat IPC: 0.268473 cumulative IPC: 0.184197 (Simulation time: 0 hr 23 min 33 sec) 
Heartbeat CPU 0 instructions: 45000001 cycles: 193862070 heartbeat IPC: 0.270281 cumulative IPC: 0.185889 (Simulation time: 0 hr 23 min 58 sec) 
Heartbeat CPU 0 instructions: 46000001 cycles: 197535009 heartbeat IPC: 0.272262 cumulative IPC: 0.187542 (Simulation time: 0 hr 24 min 23 sec) 
Heartbeat CPU 0 instructions: 47000001 cycles: 201211425 heartbeat IPC: 0.272004 cumulative IPC: 0.189129 (Simulation time: 0 hr 24 min 49 sec) 
Heartbeat CPU 0 instructions: 48000000 cycles: 204870845 heartbeat IPC: 0.273267 cumulative IPC: 0.190674 (Simulation time: 0 hr 25 min 14 sec) 
Heartbeat CPU 0 instructions: 49000000 cycles: 208553048 heartbeat IPC: 0.271577 cumulative IPC: 0.192142 (Simulation time: 0 hr 25 min 36 sec) 
Heartbeat CPU 0 instructions: 50000003 cycles: 212229605 heartbeat IPC: 0.271994 cumulative IPC: 0.193562 (Simulation time: 0 hr 26 min 1 sec) 
Heartbeat CPU 0 instructions: 51000001 cycles: 215908119 heartbeat IPC: 0.271848 cumulative IPC: 0.194931 (Simulation time: 0 hr 26 min 25 sec) 
Heartbeat CPU 0 instructions: 52000000 cycles: 219559632 heartbeat IPC: 0.273859 cumulative IPC: 0.196278 (Simulation time: 0 hr 26 min 48 sec) 
Heartbeat CPU 0 instructions: 53000001 cycles: 223227786 heartbeat IPC: 0.272617 cumulative IPC: 0.197565 (Simulation time: 0 hr 27 min 11 sec) 
Heartbeat CPU 0 instructions: 54000000 cycles: 226886427 heartbeat IPC: 0.273325 cumulative IPC: 0.198817 (Simulation time: 0 hr 27 min 35 sec) 
Heartbeat CPU 0 instructions: 55000000 cycles: 230561409 heartbeat IPC: 0.27211 cumulative IPC: 0.200014 (Simulation time: 0 hr 27 min 59 sec) 
Heartbeat CPU 0 instructions: 56000000 cycles: 234230196 heartbeat IPC: 0.27257 cumulative IPC: 0.201179 (Simulation time: 0 hr 28 min 22 sec) 
Heartbeat CPU 0 instructions: 57000002 cycles: 237851121 heartbeat IPC: 0.276173 cumulative IPC: 0.202348 (Simulation time: 0 hr 28 min 46 sec) 
Heartbeat CPU 0 instructions: 58000001 cycles: 241470593 heartbeat IPC: 0.276283 cumulative IPC: 0.203482 (Simulation time: 0 hr 29 min 12 sec) 
Heartbeat CPU 0 instructions: 59000003 cycles: 245061560 heartbeat IPC: 0.278477 cumulative IPC: 0.204607 (Simulation time: 0 hr 29 min 47 sec) 
Heartbeat CPU 0 instructions: 60000000 cycles: 248650131 heartbeat IPC: 0.278662 cumulative IPC: 0.2057 (Simulation time: 0 hr 30 min 14 sec) 
Heartbeat CPU 0 instructions: 61000000 cycles: 252232010 heartbeat IPC: 0.279183 cumulative IPC: 0.206767 (Simulation time: 0 hr 30 min 40 sec) 
Heartbeat CPU 0 instructions: 62000003 cycles: 255801038 heartbeat IPC: 0.280189 cumulative IPC: 0.207814 (Simulation time: 0 hr 31 min 6 sec) 
Heartbeat CPU 0 instructions: 63000001 cycles: 259391860 heartbeat IPC: 0.278487 cumulative IPC: 0.208814 (Simulation time: 0 hr 31 min 34 sec) 
Heartbeat CPU 0 instructions: 64000000 cycles: 263004430 heartbeat IPC: 0.276811 cumulative IPC: 0.209768 (Simulation time: 0 hr 32 min 1 sec) 
Heartbeat CPU 0 instructions: 65000000 cycles: 266673393 heartbeat IPC: 0.272557 cumulative IPC: 0.210651 (Simulation time: 0 hr 32 min 34 sec) 
Heartbeat CPU 0 instructions: 66000000 cycles: 270369681 heartbeat IPC: 0.270542 cumulative IPC: 0.211487 (Simulation time: 0 hr 33 min 1 sec) 
Heartbeat CPU 0 instructions: 67000001 cycles: 274227366 heartbeat IPC: 0.259223 cumulative IPC: 0.212172 (Simulation time: 0 hr 33 min 29 sec) 
Heartbeat CPU 0 instructions: 68000000 cycles: 278109224 heartbeat IPC: 0.257608 cumulative IPC: 0.212819 (Simulation time: 0 hr 34 min 0 sec) 
Heartbeat CPU 0 instructions: 69000003 cycles: 281981597 heartbeat IPC: 0.25824 cumulative IPC: 0.213456 (Simulation time: 0 hr 34 min 28 sec) 
Heartbeat CPU 0 instructions: 70000000 cycles: 285895177 heartbeat IPC: 0.25552 cumulative IPC: 0.214043 (Simulation time: 0 hr 34 min 57 sec) 
Heartbeat CPU 0 instructions: 71000002 cycles: 289602203 heartbeat IPC: 0.269759 cumulative IPC: 0.21477 (Simulation time: 0 hr 35 min 25 sec) 
Heartbeat CPU 0 instructions: 72000000 cycles: 293273183 heartbeat IPC: 0.272406 cumulative IPC: 0.215506 (Simulation time: 0 hr 35 min 56 sec) 
Heartbeat CPU 0 instructions: 73000003 cycles: 296945367 heartbeat IPC: 0.272318 cumulative IPC: 0.216222 (Simulation time: 0 hr 36 min 25 sec) 
Heartbeat CPU 0 instructions: 74000000 cycles: 300644843 heartbeat IPC: 0.270308 cumulative IPC: 0.2169 (Simulation time: 0 hr 36 min 52 sec) 
Heartbeat CPU 0 instructions: 75000000 cycles: 304347463 heartbeat IPC: 0.270079 cumulative IPC: 0.217559 (Simulation time: 0 hr 37 min 18 sec) 
Heartbeat CPU 0 instructions: 76000000 cycles: 308065165 heartbeat IPC: 0.268983 cumulative IPC: 0.218191 (Simulation time: 0 hr 37 min 47 sec) 
Heartbeat CPU 0 instructions: 77000000 cycles: 311754138 heartbeat IPC: 0.271078 cumulative IPC: 0.218828 (Simulation time: 0 hr 38 min 13 sec) 
Heartbeat CPU 0 instructions: 78000003 cycles: 315395414 heartbeat IPC: 0.27463 cumulative IPC: 0.219484 (Simulation time: 0 hr 38 min 38 sec) 
Heartbeat CPU 0 instructions: 79000000 cycles: 319061192 heartbeat IPC: 0.272793 cumulative IPC: 0.220107 (Simulation time: 0 hr 39 min 2 sec) 
Heartbeat CPU 0 instructions: 80000000 cycles: 322711344 heartbeat IPC: 0.273961 cumulative IPC: 0.220727 (Simulation time: 0 hr 39 min 26 sec) 
Heartbeat CPU 0 instructions: 81000001 cycles: 326355657 heartbeat IPC: 0.2744 cumulative IPC: 0.221337 (Simulation time: 0 hr 39 min 50 sec) 
Heartbeat CPU 0 instructions: 82000000 cycles: 330004014 heartbeat IPC: 0.274096 cumulative IPC: 0.22193 (Simulation time: 0 hr 40 min 14 sec) 
Heartbeat CPU 0 instructions: 83000003 cycles: 333681729 heartbeat IPC: 0.271909 cumulative IPC: 0.22249 (Simulation time: 0 hr 40 min 36 sec) 
Heartbeat CPU 0 instructions: 84000000 cycles: 337336650 heartbeat IPC: 0.273603 cumulative IPC: 0.223054 (Simulation time: 0 hr 40 min 58 sec) 
Heartbeat CPU 0 instructions: 85000000 cycles: 340981168 heartbeat IPC: 0.274385 cumulative IPC: 0.223611 (Simulation time: 0 hr 41 min 20 sec) 
Heartbeat CPU 0 instructions: 86000001 cycles: 344633287 heartbeat IPC: 0.273814 cumulative IPC: 0.224152 (Simulation time: 0 hr 41 min 41 sec) 
Heartbeat CPU 0 instructions: 87000001 cycles: 348294956 heartbeat IPC: 0.2731 cumulative IPC: 0.224675 (Simulation time: 0 hr 42 min 1 sec) 
Heartbeat CPU 0 instructions: 88000000 cycles: 351939555 heartbeat IPC: 0.274378 cumulative IPC: 0.225198 (Simulation time: 0 hr 42 min 21 sec) 
Heartbeat CPU 0 instructions: 89000003 cycles: 355588099 heartbeat IPC: 0.274083 cumulative IPC: 0.225708 (Simulation time: 0 hr 42 min 42 sec) 
Heartbeat CPU 0 instructions: 90000000 cycles: 359237497 heartbeat IPC: 0.274017 cumulative IPC: 0.226206 (Simulation time: 0 hr 43 min 3 sec) 
Heartbeat CPU 0 instructions: 91000000 cycles: 362873787 heartbeat IPC: 0.275006 cumulative IPC: 0.226703 (Simulation time: 0 hr 43 min 23 sec) 
Heartbeat CPU 0 instructions: 92000000 cycles: 366478589 heartbeat IPC: 0.277408 cumulative IPC: 0.227209 (Simulation time: 0 hr 43 min 42 sec) 
Heartbeat CPU 0 instructions: 93000001 cycles: 370078498 heartbeat IPC: 0.277785 cumulative IPC: 0.227709 (Simulation time: 0 hr 43 min 59 sec) 
Heartbeat CPU 0 instructions: 94000003 cycles: 373675668 heartbeat IPC: 0.277997 cumulative IPC: 0.2282 (Simulation time: 0 hr 44 min 16 sec) 
Heartbeat CPU 0 instructions: 95000002 cycles: 377277518 heartbeat IPC: 0.277635 cumulative IPC: 0.228679 (Simulation time: 0 hr 44 min 33 sec) 
Heartbeat CPU 0 instructions: 96000000 cycles: 380861624 heartbeat IPC: 0.279009 cumulative IPC: 0.22916 (Simulation time: 0 hr 44 min 50 sec) 
Heartbeat CPU 0 instructions: 97000000 cycles: 384436054 heartbeat IPC: 0.279765 cumulative IPC: 0.229637 (Simulation time: 0 hr 45 min 6 sec) 
Heartbeat CPU 0 instructions: 98000000 cycles: 388017847 heartbeat IPC: 0.27919 cumulative IPC: 0.230101 (Simulation time: 0 hr 45 min 22 sec) 
Heartbeat CPU 0 instructions: 99000000 cycles: 391614389 heartbeat IPC: 0.278045 cumulative IPC: 0.230548 (Simulation time: 0 hr 45 min 37 sec) 
Heartbeat CPU 0 instructions: 100000000 cycles: 395270748 heartbeat IPC: 0.273496 cumulative IPC: 0.230951 (Simulation time: 0 hr 45 min 51 sec) 
Heartbeat CPU 0 instructions: 101000000 cycles: 398895061 heartbeat IPC: 0.275914 cumulative IPC: 0.231365 (Simulation time: 0 hr 46 min 4 sec) 
Heartbeat CPU 0 instructions: 102000000 cycles: 403139405 heartbeat IPC: 0.235608 cumulative IPC: 0.231411 (Simulation time: 0 hr 46 min 17 sec) 
Heartbeat CPU 0 instructions: 103000002 cycles: 407701969 heartbeat IPC: 0.219175 cumulative IPC: 0.231272 (Simulation time: 0 hr 46 min 29 sec) 
Heartbeat CPU 0 instructions: 104000000 cycles: 412023841 heartbeat IPC: 0.231381 cumulative IPC: 0.231273 (Simulation time: 0 hr 46 min 41 sec) 
Heartbeat CPU 0 instructions: 105000000 cycles: 416211465 heartbeat IPC: 0.238799 cumulative IPC: 0.23135 (Simulation time: 0 hr 46 min 51 sec) 
Heartbeat CPU 0 instructions: 106000002 cycles: 420405565 heartbeat IPC: 0.238431 cumulative IPC: 0.231421 (Simulation time: 0 hr 47 min 0 sec) 
Heartbeat CPU 0 instructions: 107000000 cycles: 424640477 heartbeat IPC: 0.236132 cumulative IPC: 0.231469 (Simulation time: 0 hr 47 min 10 sec) 
Heartbeat CPU 0 instructions: 108000000 cycles: 428766531 heartbeat IPC: 0.242362 cumulative IPC: 0.231575 (Simulation time: 0 hr 47 min 20 sec) 
Heartbeat CPU 0 instructions: 109000000 cycles: 432879736 heartbeat IPC: 0.243119 cumulative IPC: 0.231686 (Simulation time: 0 hr 47 min 29 sec) 
Heartbeat CPU 0 instructions: 110000002 cycles: 437003786 heartbeat IPC: 0.242481 cumulative IPC: 0.231789 (Simulation time: 0 hr 47 min 38 sec) 
Finished CPU 0 instructions: 100000001 cycles: 431426112 cummulative IPC: 0.231789 (Simulation time: 0 hr 47 min 38 sec) 

ChampSim completed all CPUs

Region of Interest Statistics

CPU 0 cummulative IPC: 0.231789 instructions: 100000001 cycles: 431426112
LLC TOTAL     ACCESS:    1984398  HIT:     259341  MISS:    1725057
LLC LOAD      ACCESS:    1160250  HIT:      46924  MISS:    1113326
LLC RFO       ACCESS:     340915  HIT:      10003  MISS:     330912
LLC PREFETCH  ACCESS:          0  HIT:          0  MISS:          0
LLC WRITEBACK ACCESS:     483233  HIT:     202414  MISS:     280819
