
*** ChampSim Multicore Out-of-Order Simulator ***

Warmup Instructions: 10000000
Simulation Instructions: 100000000
Configuration: 1
Number of CPUs: 1
LLC sets: 2048
LLC ways: 16
Off-chip DRAM Channels: 1 Width: 64-bit Data Rate: 1600 MT/s

CPU 0 runs /datasets/cs240c-wi22-a00-public/data/Assignment2-gz/omnetpp_4B.trace.gz
Heartbeat CPU 0 instructions: 1000001 cycles: 566835 heartbeat IPC: 1.76418 cumulative IPC: 1.76418 (Simulation time: 0 hr 0 min 22 sec) 
Heartbeat CPU 0 instructions: 2000001 cycles: 1135266 heartbeat IPC: 1.75923 cumulative IPC: 1.7617 (Simulation time: 0 hr 0 min 43 sec) 
Heartbeat CPU 0 instructions: 3000001 cycles: 1722590 heartbeat IPC: 1.70264 cumulative IPC: 1.74156 (Simulation time: 0 hr 1 min 5 sec) 
Heartbeat CPU 0 instructions: 4000000 cycles: 2291778 heartbeat IPC: 1.75689 cumulative IPC: 1.74537 (Simulation time: 0 hr 1 min 24 sec) 
Heartbeat CPU 0 instructions: 5000000 cycles: 2865807 heartbeat IPC: 1.74207 cumulative IPC: 1.74471 (Simulation time: 0 hr 1 min 44 sec) 
Heartbeat CPU 0 instructions: 6000000 cycles: 3442100 heartbeat IPC: 1.73523 cumulative IPC: 1.74312 (Simulation time: 0 hr 2 min 6 sec) 
Heartbeat CPU 0 instructions: 7000000 cycles: 4011330 heartbeat IPC: 1.75676 cumulative IPC: 1.74506 (Simulation time: 0 hr 2 min 26 sec) 
Heartbeat CPU 0 instructions: 8000000 cycles: 4564773 heartbeat IPC: 1.80687 cumulative IPC: 1.75255 (Simulation time: 0 hr 2 min 48 sec) 
Heartbeat CPU 0 instructions: 9000001 cycles: 5146869 heartbeat IPC: 1.71793 cumulative IPC: 1.74864 (Simulation time: 0 hr 3 min 11 sec) 
Heartbeat CPU 0 instructions: 10000000 cycles: 5700802 heartbeat IPC: 1.80527 cumulative IPC: 1.75414 (Simulation time: 0 hr 3 min 29 sec) 

Warmup complete CPU 0 instructions: 10000003 cycles: 5700803 (Simulation time: 0 hr 3 min 29 sec) 

Heartbeat CPU 0 instructions: 11000000 cycles: 8998784 heartbeat IPC: 0.303216 cumulative IPC: 0.303215 (Simulation time: 0 hr 4 min 3 sec) 
Heartbeat CPU 0 instructions: 12000000 cycles: 10156275 heartbeat IPC: 0.863938 cumulative IPC: 0.448886 (Simulation time: 0 hr 4 min 22 sec) 
Heartbeat CPU 0 instructions: 13000003 cycles: 11301890 heartbeat IPC: 0.872896 cumulative IPC: 0.53561 (Simulation time: 0 hr 4 min 41 sec) 
Heartbeat CPU 0 instructions: 14000000 cycles: 12422237 heartbeat IPC: 0.892578 cumulative IPC: 0.595111 (Simulation time: 0 hr 5 min 3 sec) 
Heartbeat CPU 0 instructions: 15000000 cycles: 13561421 heartbeat IPC: 0.877821 cumulative IPC: 0.636082 (Simulation time: 0 hr 5 min 23 sec) 
Heartbeat CPU 0 instructions: 16000000 cycles: 16528881 heartbeat IPC: 0.336989 cumulative IPC: 0.554115 (Simulation time: 0 hr 5 min 46 sec) 
Heartbeat CPU 0 instructions: 17000003 cycles: 19532321 heartbeat IPC: 0.332953 cumulative IPC: 0.506091 (Simulation time: 0 hr 6 min 8 sec) 
Heartbeat CPU 0 instructions: 18000002 cycles: 22424496 heartbeat IPC: 0.34576 cumulative IPC: 0.478363 (Simulation time: 0 hr 6 min 33 sec) 
Heartbeat CPU 0 instructions: 19000002 cycles: 25327332 heartbeat IPC: 0.344491 cumulative IPC: 0.458563 (Simulation time: 0 hr 6 min 56 sec) 
Heartbeat CPU 0 instructions: 20000000 cycles: 28793686 heartbeat IPC: 0.288487 cumulative IPC: 0.433034 (Simulation time: 0 hr 7 min 20 sec) 
Heartbeat CPU 0 instructions: 21000000 cycles: 32242675 heartbeat IPC: 0.28994 cumulative IPC: 0.414439 (Simulation time: 0 hr 7 min 45 sec) 
Heartbeat CPU 0 instructions: 22000001 cycles: 35559380 heartbeat IPC: 0.301504 cumulative IPC: 0.401895 (Simulation time: 0 hr 8 min 14 sec) 
Heartbeat CPU 0 instructions: 23000000 cycles: 38520994 heartbeat IPC: 0.337653 cumulative IPC: 0.396098 (Simulation time: 0 hr 8 min 35 sec) 
Heartbeat CPU 0 instructions: 24000000 cycles: 41406865 heartbeat IPC: 0.346516 cumulative IPC: 0.39209 (Simulation time: 0 hr 8 min 59 sec) 
Heartbeat CPU 0 instructions: 25000000 cycles: 44291911 heartbeat IPC: 0.346615 cumulative IPC: 0.388691 (Simulation time: 0 hr 9 min 23 sec) 
Heartbeat CPU 0 instructions: 26000002 cycles: 47164901 heartbeat IPC: 0.34807 cumulative IPC: 0.385876 (Simulation time: 0 hr 9 min 47 sec) 
Heartbeat CPU 0 instructions: 27000001 cycles: 50093383 heartbeat IPC: 0.341473 cumulative IPC: 0.382947 (Simulation time: 0 hr 10 min 12 sec) 
Heartbeat CPU 0 instructions: 28000000 cycles: 52960370 heartbeat IPC: 0.348798 cumulative IPC: 0.380875 (Simulation time: 0 hr 10 min 35 sec) 
Heartbeat CPU 0 instructions: 29000001 cycles: 55944292 heartbeat IPC: 0.33513 cumulative IPC: 0.378158 (Simulation time: 0 hr 11 min 1 sec) 
Heartbeat CPU 0 instructions: 30000000 cycles: 58832126 heartbeat IPC: 0.34628 cumulative IPC: 0.376426 (Simulation time: 0 hr 11 min 24 sec) 
Heartbeat CPU 0 instructions: 31000002 cycles: 61691929 heartbeat IPC: 0.349675 cumulative IPC: 0.375059 (Simulation time: 0 hr 11 min 46 sec) 
Heartbeat CPU 0 instructions: 32000000 cycles: 64601725 heartbeat IPC: 0.343666 cumulative IPC: 0.373509 (Simulation time: 0 hr 12 min 9 sec) 
Heartbeat CPU 0 instructions: 33000000 cycles: 67879738 heartbeat IPC: 0.305063 cumulative IPC: 0.3699 (Simulation time: 0 hr 12 min 35 sec) 
Heartbeat CPU 0 instructions: 34000001 cycles: 71322799 heartbeat IPC: 0.29044 cumulative IPC: 0.365731 (Simulation time: 0 hr 13 min 1 sec) 
Heartbeat CPU 0 instructions: 35000001 cycles: 74519746 heartbeat IPC: 0.312798 cumulative IPC: 0.363272 (Simulation time: 0 hr 13 min 27 sec) 
Heartbeat CPU 0 instructions: 36000000 cycles: 77918864 heartbeat IPC: 0.294194 cumulative IPC: 0.360021 (Simulation time: 0 hr 13 min 54 sec) 
Heartbeat CPU 0 instructions: 37000001 cycles: 80805150 heartbeat IPC: 0.346466 cumulative IPC: 0.3595 (Simulation time: 0 hr 14 min 18 sec) 
Heartbeat CPU 0 instructions: 38000001 cycles: 84103035 heartbeat IPC: 0.303225 cumulative IPC: 0.357133 (Simulation time: 0 hr 14 min 41 sec) 
Heartbeat CPU 0 instructions: 39000001 cycles: 86714146 heartbeat IPC: 0.382979 cumulative IPC: 0.357966 (Simulation time: 0 hr 15 min 5 sec) 
Heartbeat CPU 0 instructions: 40000000 cycles: 87836679 heartbeat IPC: 0.890842 cumulative IPC: 0.365248 (Simulation time: 0 hr 15 min 26 sec) 
Heartbeat CPU 0 instructions: 41000001 cycles: 88962841 heartbeat IPC: 0.887973 cumulative IPC: 0.372319 (Simulation time: 0 hr 15 min 45 sec) 
Heartbeat CPU 0 instructions: 42000001 cycles: 90097086 heartbeat IPC: 0.881644 cumulative IPC: 0.379164 (Simulation time: 0 hr 16 min 8 sec) 
Heartbeat CPU 0 instructions: 43000002 cycles: 91357873 heartbeat IPC: 0.793156 cumulative IPC: 0.385257 (Simulation time: 0 hr 16 min 28 sec) 
Heartbeat CPU 0 instructions: 44000000 cycles: 94356371 heartbeat IPC: 0.3335 cumulative IPC: 0.383507 (Simulation time: 0 hr 16 min 54 sec) 
Heartbeat CPU 0 instructions: 45000000 cycles: 97329616 heartbeat IPC: 0.336333 cumulative IPC: 0.381976 (Simulation time: 0 hr 17 min 17 sec) 
Heartbeat CPU 0 instructions: 46000000 cycles: 100800005 heartbeat IPC: 0.288152 cumulative IPC: 0.378552 (Simulation time: 0 hr 17 min 45 sec) 
Heartbeat CPU 0 instructions: 47000000 cycles: 104263547 heartbeat IPC: 0.288722 cumulative IPC: 0.375395 (Simulation time: 0 hr 18 min 10 sec) 
Heartbeat CPU 0 instructions: 48000000 cycles: 107546395 heartbeat IPC: 0.304614 cumulative IPC: 0.373114 (Simulation time: 0 hr 18 min 35 sec) 
Heartbeat CPU 0 instructions: 49000000 cycles: 110618180 heartbeat IPC: 0.325544 cumulative IPC: 0.371721 (Simulation time: 0 hr 19 min 0 sec) 
Heartbeat CPU 0 instructions: 50000001 cycles: 113528430 heartbeat IPC: 0.343613 cumulative IPC: 0.370962 (Simulation time: 0 hr 19 min 24 sec) 
Heartbeat CPU 0 instructions: 51000003 cycles: 116437035 heartbeat IPC: 0.343808 cumulative IPC: 0.370249 (Simulation time: 0 hr 19 min 47 sec) 
Heartbeat CPU 0 instructions: 52000000 cycles: 119326504 heartbeat IPC: 0.346083 cumulative IPC: 0.369635 (Simulation time: 0 hr 20 min 10 sec) 
Heartbeat CPU 0 instructions: 53000003 cycles: 122241059 heartbeat IPC: 0.343107 cumulative IPC: 0.368971 (Simulation time: 0 hr 20 min 34 sec) 
Heartbeat CPU 0 instructions: 54000001 cycles: 125115779 heartbeat IPC: 0.347859 cumulative IPC: 0.368463 (Simulation time: 0 hr 21 min 0 sec) 
Heartbeat CPU 0 instructions: 55000001 cycles: 128180375 heartbeat IPC: 0.326307 cumulative IPC: 0.367408 (Simulation time: 0 hr 21 min 24 sec) 
Heartbeat CPU 0 instructions: 56000000 cycles: 131086869 heartbeat IPC: 0.344057 cumulative IPC: 0.366867 (Simulation time: 0 hr 21 min 50 sec) 
Heartbeat CPU 0 instructions: 57000003 cycles: 133958266 heartbeat IPC: 0.348264 cumulative IPC: 0.36645 (Simulation time: 0 hr 22 min 12 sec) 
Heartbeat CPU 0 instructions: 58000001 cycles: 137037446 heartbeat IPC: 0.324761 cumulative IPC: 0.365473 (Simulation time: 0 hr 22 min 33 sec) 
Heartbeat CPU 0 instructions: 59000001 cycles: 140435166 heartbeat IPC: 0.294315 cumulative IPC: 0.363679 (Simulation time: 0 hr 22 min 57 sec) 
Heartbeat CPU 0 instructions: 60000000 cycles: 143523611 heartbeat IPC: 0.323787 cumulative IPC: 0.362785 (Simulation time: 0 hr 23 min 21 sec) 
Heartbeat CPU 0 instructions: 61000001 cycles: 146727896 heartbeat IPC: 0.312082 cumulative IPC: 0.361633 (Simulation time: 0 hr 23 min 45 sec) 
Heartbeat CPU 0 instructions: 62000000 cycles: 150177713 heartbeat IPC: 0.28987 cumulative IPC: 0.359919 (Simulation time: 0 hr 24 min 12 sec) 
Heartbeat CPU 0 instructions: 63000001 cycles: 153096503 heartbeat IPC: 0.342608 cumulative IPC: 0.359576 (Simulation time: 0 hr 24 min 38 sec) 
Heartbeat CPU 0 instructions: 64000000 cycles: 155984911 heartbeat IPC: 0.346211 cumulative IPC: 0.359319 (Simulation time: 0 hr 25 min 0 sec) 
Heartbeat CPU 0 instructions: 65000001 cycles: 158873617 heartbeat IPC: 0.346176 cumulative IPC: 0.359072 (Simulation time: 0 hr 25 min 22 sec) 
Heartbeat CPU 0 instructions: 66000002 cycles: 163145079 heartbeat IPC: 0.234112 cumulative IPC: 0.355681 (Simulation time: 0 hr 25 min 48 sec) 
Heartbeat CPU 0 instructions: 67000001 cycles: 164883983 heartbeat IPC: 0.575074 cumulative IPC: 0.358078 (Simulation time: 0 hr 26 min 12 sec) 
Heartbeat CPU 0 instructions: 68000000 cycles: 166009924 heartbeat IPC: 0.888145 cumulative IPC: 0.361801 (Simulation time: 0 hr 26 min 31 sec) 
Heartbeat CPU 0 instructions: 69000003 cycles: 167151926 heartbeat IPC: 0.875658 cumulative IPC: 0.365436 (Simulation time: 0 hr 26 min 52 sec) 
Heartbeat CPU 0 instructions: 70000000 cycles: 168272053 heartbeat IPC: 0.892753 cumulative IPC: 0.369069 (Simulation time: 0 hr 27 min 14 sec) 
Heartbeat CPU 0 instructions: 71000001 cycles: 169446962 heartbeat IPC: 0.851131 cumulative IPC: 0.372528 (Simulation time: 0 hr 27 min 31 sec) 
Heartbeat CPU 0 instructions: 72000000 cycles: 172901158 heartbeat IPC: 0.289503 cumulative IPC: 0.370813 (Simulation time: 0 hr 27 min 53 sec) 
Heartbeat CPU 0 instructions: 73000000 cycles: 176417364 heartbeat IPC: 0.284397 cumulative IPC: 0.369033 (Simulation time: 0 hr 28 min 17 sec) 
Heartbeat CPU 0 instructions: 74000001 cycles: 179870442 heartbeat IPC: 0.289597 cumulative IPC: 0.367458 (Simulation time: 0 hr 28 min 41 sec) 
Heartbeat CPU 0 instructions: 75000001 cycles: 182897267 heartbeat IPC: 0.330379 cumulative IPC: 0.366824 (Simulation time: 0 hr 29 min 6 sec) 
Heartbeat CPU 0 instructions: 76000000 cycles: 185792454 heartbeat IPC: 0.3454 cumulative IPC: 0.36648 (Simulation time: 0 hr 29 min 27 sec) 
Heartbeat CPU 0 instructions: 77000000 cycles: 188707098 heartbeat IPC: 0.343095 cumulative IPC: 0.366108 (Simulation time: 0 hr 29 min 48 sec) 
Heartbeat CPU 0 instructions: 78000001 cycles: 191622159 heartbeat IPC: 0.343046 cumulative IPC: 0.365746 (Simulation time: 0 hr 30 min 15 sec) 
Heartbeat CPU 0 instructions: 79000001 cycles: 194515128 heartbeat IPC: 0.345666 cumulative IPC: 0.365438 (Simulation time: 0 hr 30 min 39 sec) 
Heartbeat CPU 0 instructions: 80000000 cycles: 197401048 heartbeat IPC: 0.34651 cumulative IPC: 0.365153 (Simulation time: 0 hr 31 min 4 sec) 
Heartbeat CPU 0 instructions: 81000002 cycles: 200405643 heartbeat IPC: 0.332824 cumulative IPC: 0.364655 (Simulation time: 0 hr 31 min 27 sec) 
Heartbeat CPU 0 instructions: 82000001 cycles: 203334345 heartbeat IPC: 0.341448 cumulative IPC: 0.364311 (Simulation time: 0 hr 31 min 50 sec) 
Heartbeat CPU 0 instructions: 83000002 cycles: 206277333 heartbeat IPC: 0.339791 cumulative IPC: 0.363951 (Simulation time: 0 hr 32 min 15 sec) 
Heartbeat CPU 0 instructions: 84000000 cycles: 209246915 heartbeat IPC: 0.336747 cumulative IPC: 0.363554 (Simulation time: 0 hr 32 min 40 sec) 
Heartbeat CPU 0 instructions: 85000002 cycles: 212700366 heartbeat IPC: 0.289566 cumulative IPC: 0.36232 (Simulation time: 0 hr 33 min 5 sec) 
Heartbeat CPU 0 instructions: 86000002 cycles: 216156724 heartbeat IPC: 0.289322 cumulative IPC: 0.361121 (Simulation time: 0 hr 33 min 29 sec) 
Heartbeat CPU 0 instructions: 87000000 cycles: 219352179 heartbeat IPC: 0.312944 cumulative IPC: 0.3604 (Simulation time: 0 hr 33 min 54 sec) 
Heartbeat CPU 0 instructions: 88000000 cycles: 222483168 heartbeat IPC: 0.319388 cumulative IPC: 0.359808 (Simulation time: 0 hr 34 min 17 sec) 
Heartbeat CPU 0 instructions: 89000002 cycles: 225704833 heartbeat IPC: 0.310399 cumulative IPC: 0.359084 (Simulation time: 0 hr 34 min 40 sec) 
Heartbeat CPU 0 instructions: 90000001 cycles: 228628746 heartbeat IPC: 0.342007 cumulative IPC: 0.35886 (Simulation time: 0 hr 35 min 3 sec) 
Heartbeat CPU 0 instructions: 91000001 cycles: 231571033 heartbeat IPC: 0.339872 cumulative IPC: 0.358613 (Simulation time: 0 hr 35 min 28 sec) 
Heartbeat CPU 0 instructions: 92000000 cycles: 234659238 heartbeat IPC: 0.323812 cumulative IPC: 0.358144 (Simulation time: 0 hr 35 min 55 sec) 
Heartbeat CPU 0 instructions: 93000000 cycles: 237592771 heartbeat IPC: 0.340886 cumulative IPC: 0.357925 (Simulation time: 0 hr 36 min 18 sec) 
Heartbeat CPU 0 instructions: 94000000 cycles: 242310218 heartbeat IPC: 0.211979 cumulative IPC: 0.355015 (Simulation time: 0 hr 36 min 46 sec) 
Heartbeat CPU 0 instructions: 95000000 cycles: 243509137 heartbeat IPC: 0.834085 cumulative IPC: 0.357431 (Simulation time: 0 hr 37 min 6 sec) 
Heartbeat CPU 0 instructions: 96000000 cycles: 244652220 heartbeat IPC: 0.874827 cumulative IPC: 0.359906 (Simulation time: 0 hr 37 min 23 sec) 
Heartbeat CPU 0 instructions: 97000002 cycles: 245770691 heartbeat IPC: 0.89408 cumulative IPC: 0.362394 (Simulation time: 0 hr 37 min 38 sec) 
Heartbeat CPU 0 instructions: 98000001 cycles: 246912497 heartbeat IPC: 0.875805 cumulative IPC: 0.364825 (Simulation time: 0 hr 37 min 59 sec) 
Heartbeat CPU 0 instructions: 99000002 cycles: 248824154 heartbeat IPC: 0.523107 cumulative IPC: 0.366069 (Simulation time: 0 hr 38 min 17 sec) 
Heartbeat CPU 0 instructions: 100000000 cycles: 252357470 heartbeat IPC: 0.28302 cumulative IPC: 0.36488 (Simulation time: 0 hr 38 min 39 sec) 
Heartbeat CPU 0 instructions: 101000002 cycles: 255591441 heartbeat IPC: 0.309218 cumulative IPC: 0.364159 (Simulation time: 0 hr 38 min 59 sec) 
Heartbeat CPU 0 instructions: 102000001 cycles: 258721888 heartbeat IPC: 0.319443 cumulative IPC: 0.363606 (Simulation time: 0 hr 39 min 18 sec) 
Heartbeat CPU 0 instructions: 103000000 cycles: 261654507 heartbeat IPC: 0.340992 cumulative IPC: 0.363347 (Simulation time: 0 hr 39 min 37 sec) 
Heartbeat CPU 0 instructions: 104000000 cycles: 264611519 heartbeat IPC: 0.338179 cumulative IPC: 0.36306 (Simulation time: 0 hr 40 min 0 sec) 
Heartbeat CPU 0 instructions: 105000001 cycles: 267538260 heartbeat IPC: 0.341677 cumulative IPC: 0.362821 (Simulation time: 0 hr 40 min 18 sec) 
Heartbeat CPU 0 instructions: 106000000 cycles: 270612809 heartbeat IPC: 0.325251 cumulative IPC: 0.362384 (Simulation time: 0 hr 40 min 35 sec) 
Heartbeat CPU 0 instructions: 107000002 cycles: 273544727 heartbeat IPC: 0.341074 cumulative IPC: 0.362151 (Simulation time: 0 hr 40 min 51 sec) 
Heartbeat CPU 0 instructions: 108000000 cycles: 276462323 heartbeat IPC: 0.342747 cumulative IPC: 0.361942 (Simulation time: 0 hr 41 min 7 sec) 
Heartbeat CPU 0 instructions: 109000002 cycles: 279360169 heartbeat IPC: 0.345085 cumulative IPC: 0.361764 (Simulation time: 0 hr 41 min 28 sec) 
Heartbeat CPU 0 instructions: 110000001 cycles: 282315813 heartbeat IPC: 0.338335 cumulative IPC: 0.361513 (Simulation time: 0 hr 41 min 47 sec) 
Finished CPU 0 instructions: 100000001 cycles: 276615012 cummulative IPC: 0.361513 (Simulation time: 0 hr 41 min 47 sec) 

ChampSim completed all CPUs

Region of Interest Statistics

CPU 0 cummulative IPC: 0.361513 instructions: 100000001 cycles: 276615012
LLC TOTAL     ACCESS:    2613318  HIT:    2169021  MISS:     444297
LLC LOAD      ACCESS:    2495337  HIT:    2082234  MISS:     413103
LLC RFO       ACCESS:      37616  HIT:      21571  MISS:      16045
LLC PREFETCH  ACCESS:          0  HIT:          0  MISS:          0
LLC WRITEBACK ACCESS:      80365  HIT:      65216  MISS:      15149
