
*** ChampSim Multicore Out-of-Order Simulator ***

Warmup Instructions: 10000000
Simulation Instructions: 100000000
Configuration: 1
Number of CPUs: 1
LLC sets: 2048
LLC ways: 16
Off-chip DRAM Channels: 1 Width: 64-bit Data Rate: 1600 MT/s

CPU 0 runs /datasets/cs240c-wi22-a00-public/data/Assignment2-gz/lbm_94B.trace.gz
Heartbeat CPU 0 instructions: 1000000 cycles: 422411 heartbeat IPC: 2.36736 cumulative IPC: 2.36736 (Simulation time: 0 hr 0 min 24 sec) 
Heartbeat CPU 0 instructions: 2000000 cycles: 812709 heartbeat IPC: 2.56214 cumulative IPC: 2.46091 (Simulation time: 0 hr 0 min 45 sec) 
Heartbeat CPU 0 instructions: 3000000 cycles: 1211869 heartbeat IPC: 2.50526 cumulative IPC: 2.47552 (Simulation time: 0 hr 1 min 11 sec) 
Heartbeat CPU 0 instructions: 4000000 cycles: 1632043 heartbeat IPC: 2.37997 cumulative IPC: 2.45092 (Simulation time: 0 hr 1 min 31 sec) 
Heartbeat CPU 0 instructions: 5000001 cycles: 2022321 heartbeat IPC: 2.56228 cumulative IPC: 2.47241 (Simulation time: 0 hr 1 min 52 sec) 
Heartbeat CPU 0 instructions: 6000000 cycles: 2423000 heartbeat IPC: 2.49576 cumulative IPC: 2.47627 (Simulation time: 0 hr 2 min 18 sec) 
Heartbeat CPU 0 instructions: 7000001 cycles: 2841339 heartbeat IPC: 2.39041 cumulative IPC: 2.46363 (Simulation time: 0 hr 2 min 41 sec) 
Heartbeat CPU 0 instructions: 8000000 cycles: 3231562 heartbeat IPC: 2.56263 cumulative IPC: 2.47558 (Simulation time: 0 hr 3 min 2 sec) 
Heartbeat CPU 0 instructions: 9000003 cycles: 3632643 heartbeat IPC: 2.49327 cumulative IPC: 2.47754 (Simulation time: 0 hr 3 min 26 sec) 
Heartbeat CPU 0 instructions: 10000000 cycles: 4049298 heartbeat IPC: 2.40006 cumulative IPC: 2.46956 (Simulation time: 0 hr 3 min 46 sec) 

Warmup complete CPU 0 instructions: 10000004 cycles: 4049299 (Simulation time: 0 hr 3 min 46 sec) 

Heartbeat CPU 0 instructions: 11000003 cycles: 5561696 heartbeat IPC: 0.661204 cumulative IPC: 0.661201 (Simulation time: 0 hr 4 min 12 sec) 
Heartbeat CPU 0 instructions: 12000000 cycles: 7358265 heartbeat IPC: 0.556615 cumulative IPC: 0.604417 (Simulation time: 0 hr 4 min 45 sec) 
Heartbeat CPU 0 instructions: 13000000 cycles: 9150396 heartbeat IPC: 0.557995 cumulative IPC: 0.588108 (Simulation time: 0 hr 5 min 15 sec) 
Heartbeat CPU 0 instructions: 14000000 cycles: 10701258 heartbeat IPC: 0.644803 cumulative IPC: 0.601326 (Simulation time: 0 hr 5 min 40 sec) 
Heartbeat CPU 0 instructions: 15000001 cycles: 12492823 heartbeat IPC: 0.558172 cumulative IPC: 0.592169 (Simulation time: 0 hr 6 min 10 sec) 
Heartbeat CPU 0 instructions: 16000000 cycles: 14359733 heartbeat IPC: 0.535644 cumulative IPC: 0.581934 (Simulation time: 0 hr 6 min 38 sec) 
Heartbeat CPU 0 instructions: 17000001 cycles: 15900263 heartbeat IPC: 0.649128 cumulative IPC: 0.590669 (Simulation time: 0 hr 7 min 6 sec) 
Heartbeat CPU 0 instructions: 18000001 cycles: 17632997 heartbeat IPC: 0.577123 cumulative IPC: 0.588941 (Simulation time: 0 hr 7 min 32 sec) 
Heartbeat CPU 0 instructions: 19000000 cycles: 19549151 heartbeat IPC: 0.521878 cumulative IPC: 0.58065 (Simulation time: 0 hr 8 min 4 sec) 
Heartbeat CPU 0 instructions: 20000000 cycles: 21132261 heartbeat IPC: 0.631668 cumulative IPC: 0.585378 (Simulation time: 0 hr 8 min 31 sec) 
Heartbeat CPU 0 instructions: 21000001 cycles: 22842066 heartbeat IPC: 0.584863 cumulative IPC: 0.585331 (Simulation time: 0 hr 8 min 59 sec) 
Heartbeat CPU 0 instructions: 22000000 cycles: 24743030 heartbeat IPC: 0.526048 cumulative IPC: 0.579886 (Simulation time: 0 hr 9 min 28 sec) 
Heartbeat CPU 0 instructions: 23000000 cycles: 26382280 heartbeat IPC: 0.610035 cumulative IPC: 0.582099 (Simulation time: 0 hr 10 min 0 sec) 
Heartbeat CPU 0 instructions: 24000000 cycles: 28045692 heartbeat IPC: 0.601174 cumulative IPC: 0.583421 (Simulation time: 0 hr 10 min 33 sec) 
Heartbeat CPU 0 instructions: 25000000 cycles: 29893175 heartbeat IPC: 0.541277 cumulative IPC: 0.580408 (Simulation time: 0 hr 11 min 7 sec) 
Heartbeat CPU 0 instructions: 26000000 cycles: 31466522 heartbeat IPC: 0.635588 cumulative IPC: 0.583575 (Simulation time: 0 hr 11 min 32 sec) 
Heartbeat CPU 0 instructions: 27000002 cycles: 33148291 heartbeat IPC: 0.594613 cumulative IPC: 0.584213 (Simulation time: 0 hr 12 min 2 sec) 
Heartbeat CPU 0 instructions: 28000000 cycles: 35038350 heartbeat IPC: 0.529083 cumulative IPC: 0.58085 (Simulation time: 0 hr 12 min 35 sec) 
Heartbeat CPU 0 instructions: 29000000 cycles: 36665613 heartbeat IPC: 0.614529 cumulative IPC: 0.58253 (Simulation time: 0 hr 13 min 1 sec) 
Heartbeat CPU 0 instructions: 30000000 cycles: 38338693 heartbeat IPC: 0.5977 cumulative IPC: 0.583271 (Simulation time: 0 hr 13 min 29 sec) 
Heartbeat CPU 0 instructions: 31000003 cycles: 40126889 heartbeat IPC: 0.559224 cumulative IPC: 0.582079 (Simulation time: 0 hr 13 min 59 sec) 
Heartbeat CPU 0 instructions: 32000000 cycles: 41704122 heartbeat IPC: 0.63402 cumulative IPC: 0.584254 (Simulation time: 0 hr 14 min 30 sec) 
Heartbeat CPU 0 instructions: 33000000 cycles: 43364795 heartbeat IPC: 0.602166 cumulative IPC: 0.585011 (Simulation time: 0 hr 15 min 0 sec) 
Heartbeat CPU 0 instructions: 34000003 cycles: 45174296 heartbeat IPC: 0.55264 cumulative IPC: 0.583587 (Simulation time: 0 hr 15 min 31 sec) 
Heartbeat CPU 0 instructions: 35000003 cycles: 46769069 heartbeat IPC: 0.627048 cumulative IPC: 0.585209 (Simulation time: 0 hr 16 min 1 sec) 
Heartbeat CPU 0 instructions: 36000000 cycles: 48421513 heartbeat IPC: 0.605162 cumulative IPC: 0.585952 (Simulation time: 0 hr 16 min 28 sec) 
Heartbeat CPU 0 instructions: 37000003 cycles: 50108090 heartbeat IPC: 0.592919 cumulative IPC: 0.586207 (Simulation time: 0 hr 16 min 59 sec) 
Heartbeat CPU 0 instructions: 38000000 cycles: 51758426 heartbeat IPC: 0.605935 cumulative IPC: 0.58689 (Simulation time: 0 hr 17 min 31 sec) 
Heartbeat CPU 0 instructions: 39000002 cycles: 53351226 heartbeat IPC: 0.627826 cumulative IPC: 0.588212 (Simulation time: 0 hr 17 min 58 sec) 
Heartbeat CPU 0 instructions: 40000000 cycles: 55067501 heartbeat IPC: 0.582656 cumulative IPC: 0.588025 (Simulation time: 0 hr 18 min 28 sec) 
Heartbeat CPU 0 instructions: 41000003 cycles: 56753304 heartbeat IPC: 0.593191 cumulative IPC: 0.588191 (Simulation time: 0 hr 18 min 58 sec) 
Heartbeat CPU 0 instructions: 42000000 cycles: 58337872 heartbeat IPC: 0.631085 cumulative IPC: 0.589443 (Simulation time: 0 hr 19 min 25 sec) 
Heartbeat CPU 0 instructions: 43000003 cycles: 60028213 heartbeat IPC: 0.591598 cumulative IPC: 0.589508 (Simulation time: 0 hr 19 min 52 sec) 
Heartbeat CPU 0 instructions: 44000000 cycles: 61723382 heartbeat IPC: 0.58991 cumulative IPC: 0.58952 (Simulation time: 0 hr 20 min 21 sec) 
Heartbeat CPU 0 instructions: 45000002 cycles: 63300387 heartbeat IPC: 0.634115 cumulative IPC: 0.590706 (Simulation time: 0 hr 20 min 51 sec) 
Heartbeat CPU 0 instructions: 46000001 cycles: 64971677 heartbeat IPC: 0.59834 cumulative IPC: 0.590916 (Simulation time: 0 hr 21 min 19 sec) 
Heartbeat CPU 0 instructions: 47000001 cycles: 66636437 heartbeat IPC: 0.600687 cumulative IPC: 0.591176 (Simulation time: 0 hr 21 min 46 sec) 
Heartbeat CPU 0 instructions: 48000000 cycles: 68199675 heartbeat IPC: 0.639697 cumulative IPC: 0.592358 (Simulation time: 0 hr 22 min 17 sec) 
Heartbeat CPU 0 instructions: 49000000 cycles: 69854076 heartbeat IPC: 0.604448 cumulative IPC: 0.592662 (Simulation time: 0 hr 22 min 47 sec) 
Heartbeat CPU 0 instructions: 50000003 cycles: 71527014 heartbeat IPC: 0.597753 cumulative IPC: 0.592788 (Simulation time: 0 hr 23 min 19 sec) 
Heartbeat CPU 0 instructions: 51000000 cycles: 73150399 heartbeat IPC: 0.615995 cumulative IPC: 0.593333 (Simulation time: 0 hr 23 min 48 sec) 
Heartbeat CPU 0 instructions: 52000000 cycles: 74765184 heartbeat IPC: 0.619277 cumulative IPC: 0.593926 (Simulation time: 0 hr 24 min 17 sec) 
Heartbeat CPU 0 instructions: 53000001 cycles: 76430768 heartbeat IPC: 0.600391 cumulative IPC: 0.594075 (Simulation time: 0 hr 24 min 43 sec) 
Heartbeat CPU 0 instructions: 54000000 cycles: 78045222 heartbeat IPC: 0.619404 cumulative IPC: 0.594627 (Simulation time: 0 hr 25 min 8 sec) 
Heartbeat CPU 0 instructions: 55000003 cycles: 79642915 heartbeat IPC: 0.625904 cumulative IPC: 0.595288 (Simulation time: 0 hr 25 min 42 sec) 
Heartbeat CPU 0 instructions: 56000000 cycles: 81308251 heartbeat IPC: 0.600478 cumulative IPC: 0.5954 (Simulation time: 0 hr 26 min 8 sec) 
Heartbeat CPU 0 instructions: 57000003 cycles: 82931036 heartbeat IPC: 0.616226 cumulative IPC: 0.595829 (Simulation time: 0 hr 26 min 32 sec) 
Heartbeat CPU 0 instructions: 58000000 cycles: 84532975 heartbeat IPC: 0.624242 cumulative IPC: 0.596394 (Simulation time: 0 hr 26 min 58 sec) 
Heartbeat CPU 0 instructions: 59000002 cycles: 86148177 heartbeat IPC: 0.619119 cumulative IPC: 0.596841 (Simulation time: 0 hr 27 min 27 sec) 
Heartbeat CPU 0 instructions: 60000000 cycles: 87773797 heartbeat IPC: 0.615149 cumulative IPC: 0.597197 (Simulation time: 0 hr 27 min 55 sec) 
Heartbeat CPU 0 instructions: 61000000 cycles: 89399061 heartbeat IPC: 0.615285 cumulative IPC: 0.597541 (Simulation time: 0 hr 28 min 21 sec) 
Heartbeat CPU 0 instructions: 62000000 cycles: 91006498 heartbeat IPC: 0.622108 cumulative IPC: 0.597995 (Simulation time: 0 hr 28 min 44 sec) 
Heartbeat CPU 0 instructions: 63000001 cycles: 92645726 heartbeat IPC: 0.610044 cumulative IPC: 0.598218 (Simulation time: 0 hr 29 min 9 sec) 
Heartbeat CPU 0 instructions: 64000000 cycles: 94224136 heartbeat IPC: 0.633548 cumulative IPC: 0.598837 (Simulation time: 0 hr 29 min 36 sec) 
Heartbeat CPU 0 instructions: 65000001 cycles: 95816928 heartbeat IPC: 0.627829 cumulative IPC: 0.59934 (Simulation time: 0 hr 30 min 3 sec) 
Heartbeat CPU 0 instructions: 66000002 cycles: 97453070 heartbeat IPC: 0.611194 cumulative IPC: 0.599548 (Simulation time: 0 hr 30 min 34 sec) 
Heartbeat CPU 0 instructions: 67000002 cycles: 99075376 heartbeat IPC: 0.616407 cumulative IPC: 0.599835 (Simulation time: 0 hr 31 min 0 sec) 
Heartbeat CPU 0 instructions: 68000000 cycles: 100692849 heartbeat IPC: 0.618247 cumulative IPC: 0.600143 (Simulation time: 0 hr 31 min 26 sec) 
Heartbeat CPU 0 instructions: 69000000 cycles: 102301670 heartbeat IPC: 0.621573 cumulative IPC: 0.600494 (Simulation time: 0 hr 31 min 56 sec) 
Heartbeat CPU 0 instructions: 70000003 cycles: 103992642 heartbeat IPC: 0.591378 cumulative IPC: 0.60034 (Simulation time: 0 hr 32 min 27 sec) 
Heartbeat CPU 0 instructions: 71000001 cycles: 105607845 heartbeat IPC: 0.619116 cumulative IPC: 0.600639 (Simulation time: 0 hr 32 min 58 sec) 
Heartbeat CPU 0 instructions: 72000000 cycles: 107208759 heartbeat IPC: 0.624643 cumulative IPC: 0.601011 (Simulation time: 0 hr 33 min 27 sec) 
Heartbeat CPU 0 instructions: 73000001 cycles: 108889862 heartbeat IPC: 0.594848 cumulative IPC: 0.600912 (Simulation time: 0 hr 33 min 56 sec) 
Heartbeat CPU 0 instructions: 74000001 cycles: 110500042 heartbeat IPC: 0.621049 cumulative IPC: 0.601217 (Simulation time: 0 hr 34 min 23 sec) 
Heartbeat CPU 0 instructions: 75000000 cycles: 112099055 heartbeat IPC: 0.625385 cumulative IPC: 0.601575 (Simulation time: 0 hr 34 min 52 sec) 
Heartbeat CPU 0 instructions: 76000000 cycles: 113782733 heartbeat IPC: 0.593938 cumulative IPC: 0.601457 (Simulation time: 0 hr 35 min 19 sec) 
Heartbeat CPU 0 instructions: 77000002 cycles: 115353638 heartbeat IPC: 0.636577 cumulative IPC: 0.601953 (Simulation time: 0 hr 35 min 46 sec) 
Heartbeat CPU 0 instructions: 78000003 cycles: 116968434 heartbeat IPC: 0.619274 cumulative IPC: 0.602201 (Simulation time: 0 hr 36 min 11 sec) 
Heartbeat CPU 0 instructions: 79000000 cycles: 118596069 heartbeat IPC: 0.614386 cumulative IPC: 0.602374 (Simulation time: 0 hr 36 min 33 sec) 
Heartbeat CPU 0 instructions: 80000000 cycles: 120243449 heartbeat IPC: 0.607024 cumulative IPC: 0.60244 (Simulation time: 0 hr 36 min 57 sec) 
Heartbeat CPU 0 instructions: 81000000 cycles: 121880876 heartbeat IPC: 0.610714 cumulative IPC: 0.602555 (Simulation time: 0 hr 37 min 24 sec) 
Heartbeat CPU 0 instructions: 82000000 cycles: 123493984 heartbeat IPC: 0.619921 cumulative IPC: 0.602789 (Simulation time: 0 hr 37 min 51 sec) 
Heartbeat CPU 0 instructions: 83000003 cycles: 125142389 heartbeat IPC: 0.606649 cumulative IPC: 0.602842 (Simulation time: 0 hr 38 min 14 sec) 
Heartbeat CPU 0 instructions: 84000000 cycles: 126706485 heartbeat IPC: 0.639345 cumulative IPC: 0.603307 (Simulation time: 0 hr 38 min 35 sec) 
Heartbeat CPU 0 instructions: 85000001 cycles: 128309190 heartbeat IPC: 0.623946 cumulative IPC: 0.603574 (Simulation time: 0 hr 38 min 59 sec) 
Heartbeat CPU 0 instructions: 86000002 cycles: 129977445 heartbeat IPC: 0.599429 cumulative IPC: 0.603519 (Simulation time: 0 hr 39 min 22 sec) 
Heartbeat CPU 0 instructions: 87000000 cycles: 131616769 heartbeat IPC: 0.610006 cumulative IPC: 0.603602 (Simulation time: 0 hr 39 min 44 sec) 
Heartbeat CPU 0 instructions: 88000000 cycles: 133196968 heartbeat IPC: 0.632832 cumulative IPC: 0.60396 (Simulation time: 0 hr 40 min 8 sec) 
Heartbeat CPU 0 instructions: 89000003 cycles: 134789819 heartbeat IPC: 0.627807 cumulative IPC: 0.60425 (Simulation time: 0 hr 40 min 28 sec) 
Heartbeat CPU 0 instructions: 90000003 cycles: 136450164 heartbeat IPC: 0.602284 cumulative IPC: 0.604226 (Simulation time: 0 hr 40 min 49 sec) 
Heartbeat CPU 0 instructions: 91000002 cycles: 138037479 heartbeat IPC: 0.629994 cumulative IPC: 0.604531 (Simulation time: 0 hr 41 min 8 sec) 
Heartbeat CPU 0 instructions: 92000000 cycles: 139641068 heartbeat IPC: 0.6236 cumulative IPC: 0.604756 (Simulation time: 0 hr 41 min 28 sec) 
Heartbeat CPU 0 instructions: 93000003 cycles: 141306432 heartbeat IPC: 0.600471 cumulative IPC: 0.604704 (Simulation time: 0 hr 41 min 48 sec) 
Heartbeat CPU 0 instructions: 94000001 cycles: 142889779 heartbeat IPC: 0.631572 cumulative IPC: 0.605011 (Simulation time: 0 hr 42 min 8 sec) 
Heartbeat CPU 0 instructions: 95000003 cycles: 144479209 heartbeat IPC: 0.629158 cumulative IPC: 0.605284 (Simulation time: 0 hr 42 min 28 sec) 
Heartbeat CPU 0 instructions: 96000000 cycles: 146093896 heartbeat IPC: 0.619313 cumulative IPC: 0.605444 (Simulation time: 0 hr 42 min 46 sec) 
Heartbeat CPU 0 instructions: 97000000 cycles: 147757318 heartbeat IPC: 0.60117 cumulative IPC: 0.605394 (Simulation time: 0 hr 43 min 3 sec) 
Heartbeat CPU 0 instructions: 98000002 cycles: 149346279 heartbeat IPC: 0.629343 cumulative IPC: 0.605656 (Simulation time: 0 hr 43 min 18 sec) 
Heartbeat CPU 0 instructions: 99000001 cycles: 150938036 heartbeat IPC: 0.628236 cumulative IPC: 0.605901 (Simulation time: 0 hr 43 min 35 sec) 
Heartbeat CPU 0 instructions: 100000000 cycles: 152560856 heartbeat IPC: 0.616211 cumulative IPC: 0.606013 (Simulation time: 0 hr 43 min 52 sec) 
Heartbeat CPU 0 instructions: 101000003 cycles: 154139016 heartbeat IPC: 0.633651 cumulative IPC: 0.606304 (Simulation time: 0 hr 44 min 7 sec) 
Heartbeat CPU 0 instructions: 102000002 cycles: 155755833 heartbeat IPC: 0.618499 cumulative IPC: 0.606434 (Simulation time: 0 hr 44 min 23 sec) 
Heartbeat CPU 0 instructions: 103000000 cycles: 157406913 heartbeat IPC: 0.605663 cumulative IPC: 0.606426 (Simulation time: 0 hr 44 min 37 sec) 
Heartbeat CPU 0 instructions: 104000000 cycles: 159026130 heartbeat IPC: 0.617582 cumulative IPC: 0.606542 (Simulation time: 0 hr 44 min 52 sec) 
Heartbeat CPU 0 instructions: 105000002 cycles: 160618462 heartbeat IPC: 0.628011 cumulative IPC: 0.606761 (Simulation time: 0 hr 45 min 7 sec) 
Heartbeat CPU 0 instructions: 106000000 cycles: 162191897 heartbeat IPC: 0.635551 cumulative IPC: 0.607047 (Simulation time: 0 hr 45 min 20 sec) 
Heartbeat CPU 0 instructions: 107000000 cycles: 163838335 heartbeat IPC: 0.607372 cumulative IPC: 0.60705 (Simulation time: 0 hr 45 min 34 sec) 
Heartbeat CPU 0 instructions: 108000000 cycles: 165467540 heartbeat IPC: 0.613796 cumulative IPC: 0.607118 (Simulation time: 0 hr 45 min 47 sec) 
Heartbeat CPU 0 instructions: 109000002 cycles: 167081547 heartbeat IPC: 0.619577 cumulative IPC: 0.607242 (Simulation time: 0 hr 46 min 0 sec) 
Heartbeat CPU 0 instructions: 110000000 cycles: 168736913 heartbeat IPC: 0.604095 cumulative IPC: 0.60721 (Simulation time: 0 hr 46 min 12 sec) 
Finished CPU 0 instructions: 100000000 cycles: 164687615 cummulative IPC: 0.60721 (Simulation time: 0 hr 46 min 12 sec) 

ChampSim completed all CPUs

Region of Interest Statistics

CPU 0 cummulative IPC: 0.60721 instructions: 100000000 cycles: 164687615
LLC TOTAL     ACCESS:    5455658  HIT:    1560677  MISS:    3894981
LLC LOAD      ACCESS:     763532  HIT:         94  MISS:     763438
LLC RFO       ACCESS:    2345906  HIT:     504774  MISS:    1841132
LLC PREFETCH  ACCESS:          0  HIT:          0  MISS:          0
LLC WRITEBACK ACCESS:    2346220  HIT:    1055809  MISS:    1290411
