
*** ChampSim Multicore Out-of-Order Simulator ***

Warmup Instructions: 10000000
Simulation Instructions: 100000000
Configuration: 1
Number of CPUs: 1
LLC sets: 2048
LLC ways: 16
Off-chip DRAM Channels: 1 Width: 64-bit Data Rate: 1600 MT/s

CPU 0 runs /datasets/cs240c-wi22-a00-public/data/Assignment2-gz/wrf_1212B.trace.gz
Heartbeat CPU 0 instructions: 1000001 cycles: 599253 heartbeat IPC: 1.66875 cumulative IPC: 1.66875 (Simulation time: 0 hr 0 min 24 sec) 
Heartbeat CPU 0 instructions: 2000000 cycles: 1198243 heartbeat IPC: 1.66948 cumulative IPC: 1.66911 (Simulation time: 0 hr 0 min 50 sec) 
Heartbeat CPU 0 instructions: 3000001 cycles: 1797630 heartbeat IPC: 1.66837 cumulative IPC: 1.66886 (Simulation time: 0 hr 1 min 13 sec) 
Heartbeat CPU 0 instructions: 4000000 cycles: 2396228 heartbeat IPC: 1.67057 cumulative IPC: 1.66929 (Simulation time: 0 hr 1 min 36 sec) 
Heartbeat CPU 0 instructions: 5000000 cycles: 2995748 heartbeat IPC: 1.668 cumulative IPC: 1.66903 (Simulation time: 0 hr 2 min 3 sec) 
Heartbeat CPU 0 instructions: 6000001 cycles: 3595804 heartbeat IPC: 1.66651 cumulative IPC: 1.66861 (Simulation time: 0 hr 2 min 25 sec) 
Heartbeat CPU 0 instructions: 7000001 cycles: 4194148 heartbeat IPC: 1.67128 cumulative IPC: 1.66899 (Simulation time: 0 hr 2 min 47 sec) 
Heartbeat CPU 0 instructions: 8000000 cycles: 4792964 heartbeat IPC: 1.66996 cumulative IPC: 1.66911 (Simulation time: 0 hr 3 min 12 sec) 
Heartbeat CPU 0 instructions: 9000002 cycles: 5392362 heartbeat IPC: 1.66834 cumulative IPC: 1.66903 (Simulation time: 0 hr 3 min 35 sec) 
Heartbeat CPU 0 instructions: 10000000 cycles: 5992503 heartbeat IPC: 1.66627 cumulative IPC: 1.66875 (Simulation time: 0 hr 3 min 57 sec) 

Warmup complete CPU 0 instructions: 10000003 cycles: 5992504 (Simulation time: 0 hr 3 min 57 sec) 

Heartbeat CPU 0 instructions: 11000003 cycles: 7767112 heartbeat IPC: 0.563506 cumulative IPC: 0.563505 (Simulation time: 0 hr 4 min 24 sec) 
Heartbeat CPU 0 instructions: 12000000 cycles: 9576377 heartbeat IPC: 0.552709 cumulative IPC: 0.558055 (Simulation time: 0 hr 4 min 52 sec) 
Heartbeat CPU 0 instructions: 13000000 cycles: 11401026 heartbeat IPC: 0.548051 cumulative IPC: 0.55468 (Simulation time: 0 hr 5 min 21 sec) 
Heartbeat CPU 0 instructions: 14000002 cycles: 13227684 heartbeat IPC: 0.547449 cumulative IPC: 0.552854 (Simulation time: 0 hr 5 min 49 sec) 
Heartbeat CPU 0 instructions: 15000003 cycles: 15047161 heartbeat IPC: 0.549609 cumulative IPC: 0.552202 (Simulation time: 0 hr 6 min 16 sec) 
Heartbeat CPU 0 instructions: 16000000 cycles: 16830341 heartbeat IPC: 0.560794 cumulative IPC: 0.553616 (Simulation time: 0 hr 6 min 44 sec) 
Heartbeat CPU 0 instructions: 17000000 cycles: 18651651 heartbeat IPC: 0.549055 cumulative IPC: 0.55296 (Simulation time: 0 hr 7 min 15 sec) 
Heartbeat CPU 0 instructions: 18000000 cycles: 20478236 heartbeat IPC: 0.54747 cumulative IPC: 0.552267 (Simulation time: 0 hr 7 min 44 sec) 
Heartbeat CPU 0 instructions: 19000003 cycles: 22300692 heartbeat IPC: 0.548712 cumulative IPC: 0.55187 (Simulation time: 0 hr 8 min 15 sec) 
Heartbeat CPU 0 instructions: 20000000 cycles: 24067317 heartbeat IPC: 0.566049 cumulative IPC: 0.553256 (Simulation time: 0 hr 8 min 45 sec) 
Heartbeat CPU 0 instructions: 21000001 cycles: 25870518 heartbeat IPC: 0.55457 cumulative IPC: 0.553375 (Simulation time: 0 hr 9 min 13 sec) 
Heartbeat CPU 0 instructions: 22000001 cycles: 27695453 heartbeat IPC: 0.547965 cumulative IPC: 0.55292 (Simulation time: 0 hr 9 min 42 sec) 
Heartbeat CPU 0 instructions: 23000000 cycles: 29525206 heartbeat IPC: 0.546521 cumulative IPC: 0.552423 (Simulation time: 0 hr 10 min 11 sec) 
Heartbeat CPU 0 instructions: 24000000 cycles: 31332047 heartbeat IPC: 0.553452 cumulative IPC: 0.552496 (Simulation time: 0 hr 10 min 39 sec) 
Heartbeat CPU 0 instructions: 25000002 cycles: 33116722 heartbeat IPC: 0.560327 cumulative IPC: 0.553011 (Simulation time: 0 hr 11 min 6 sec) 
Heartbeat CPU 0 instructions: 26000000 cycles: 34942356 heartbeat IPC: 0.547754 cumulative IPC: 0.55268 (Simulation time: 0 hr 11 min 36 sec) 
Heartbeat CPU 0 instructions: 27000000 cycles: 36769574 heartbeat IPC: 0.54728 cumulative IPC: 0.552359 (Simulation time: 0 hr 12 min 6 sec) 
Heartbeat CPU 0 instructions: 28000000 cycles: 38594851 heartbeat IPC: 0.547862 cumulative IPC: 0.552107 (Simulation time: 0 hr 12 min 35 sec) 
Heartbeat CPU 0 instructions: 29000000 cycles: 40364727 heartbeat IPC: 0.565011 cumulative IPC: 0.552772 (Simulation time: 0 hr 13 min 4 sec) 
Heartbeat CPU 0 instructions: 30000003 cycles: 42167250 heartbeat IPC: 0.55478 cumulative IPC: 0.552872 (Simulation time: 0 hr 13 min 33 sec) 
Heartbeat CPU 0 instructions: 31000000 cycles: 43994416 heartbeat IPC: 0.547294 cumulative IPC: 0.552604 (Simulation time: 0 hr 14 min 2 sec) 
Heartbeat CPU 0 instructions: 32000000 cycles: 45822366 heartbeat IPC: 0.547061 cumulative IPC: 0.552349 (Simulation time: 0 hr 14 min 31 sec) 
Heartbeat CPU 0 instructions: 33000000 cycles: 47633692 heartbeat IPC: 0.552082 cumulative IPC: 0.552338 (Simulation time: 0 hr 15 min 4 sec) 
Heartbeat CPU 0 instructions: 34000000 cycles: 49407516 heartbeat IPC: 0.563754 cumulative IPC: 0.552804 (Simulation time: 0 hr 15 min 32 sec) 
Heartbeat CPU 0 instructions: 35000003 cycles: 51236323 heartbeat IPC: 0.546806 cumulative IPC: 0.552562 (Simulation time: 0 hr 16 min 1 sec) 
Heartbeat CPU 0 instructions: 36000000 cycles: 53060018 heartbeat IPC: 0.548336 cumulative IPC: 0.552398 (Simulation time: 0 hr 16 min 30 sec) 
Heartbeat CPU 0 instructions: 37000001 cycles: 54892025 heartbeat IPC: 0.54585 cumulative IPC: 0.552153 (Simulation time: 0 hr 17 min 0 sec) 
Heartbeat CPU 0 instructions: 38000000 cycles: 56658169 heartbeat IPC: 0.566205 cumulative IPC: 0.552642 (Simulation time: 0 hr 17 min 26 sec) 
Heartbeat CPU 0 instructions: 39000000 cycles: 58450004 heartbeat IPC: 0.558087 cumulative IPC: 0.552828 (Simulation time: 0 hr 17 min 51 sec) 
Heartbeat CPU 0 instructions: 40000000 cycles: 60273227 heartbeat IPC: 0.548479 cumulative IPC: 0.552682 (Simulation time: 0 hr 18 min 19 sec) 
Heartbeat CPU 0 instructions: 41000001 cycles: 62099489 heartbeat IPC: 0.547567 cumulative IPC: 0.552516 (Simulation time: 0 hr 18 min 47 sec) 
Heartbeat CPU 0 instructions: 42000003 cycles: 63910775 heartbeat IPC: 0.552095 cumulative IPC: 0.552503 (Simulation time: 0 hr 19 min 15 sec) 
Heartbeat CPU 0 instructions: 43000001 cycles: 65668939 heartbeat IPC: 0.568774 cumulative IPC: 0.552982 (Simulation time: 0 hr 19 min 43 sec) 
Heartbeat CPU 0 instructions: 44000000 cycles: 67491020 heartbeat IPC: 0.548822 cumulative IPC: 0.552859 (Simulation time: 0 hr 20 min 17 sec) 
Heartbeat CPU 0 instructions: 45000001 cycles: 69315917 heartbeat IPC: 0.547977 cumulative IPC: 0.552718 (Simulation time: 0 hr 20 min 46 sec) 
Heartbeat CPU 0 instructions: 46000001 cycles: 71137748 heartbeat IPC: 0.548898 cumulative IPC: 0.552611 (Simulation time: 0 hr 21 min 13 sec) 
Heartbeat CPU 0 instructions: 47000000 cycles: 72907108 heartbeat IPC: 0.565176 cumulative IPC: 0.552944 (Simulation time: 0 hr 21 min 43 sec) 
Heartbeat CPU 0 instructions: 48000000 cycles: 74682968 heartbeat IPC: 0.563107 cumulative IPC: 0.553206 (Simulation time: 0 hr 22 min 10 sec) 
Heartbeat CPU 0 instructions: 49000002 cycles: 76511775 heartbeat IPC: 0.546806 cumulative IPC: 0.55304 (Simulation time: 0 hr 22 min 38 sec) 
Heartbeat CPU 0 instructions: 50000002 cycles: 78334545 heartbeat IPC: 0.548616 cumulative IPC: 0.552929 (Simulation time: 0 hr 23 min 6 sec) 
Heartbeat CPU 0 instructions: 51000002 cycles: 80168673 heartbeat IPC: 0.545218 cumulative IPC: 0.552738 (Simulation time: 0 hr 23 min 36 sec) 
Heartbeat CPU 0 instructions: 52000000 cycles: 81916393 heartbeat IPC: 0.572173 cumulative IPC: 0.553186 (Simulation time: 0 hr 24 min 4 sec) 
Heartbeat CPU 0 instructions: 53000002 cycles: 83724545 heartbeat IPC: 0.553052 cumulative IPC: 0.553182 (Simulation time: 0 hr 24 min 32 sec) 
Heartbeat CPU 0 instructions: 54000001 cycles: 85547522 heartbeat IPC: 0.548553 cumulative IPC: 0.553076 (Simulation time: 0 hr 25 min 1 sec) 
Heartbeat CPU 0 instructions: 55000000 cycles: 87371770 heartbeat IPC: 0.548171 cumulative IPC: 0.552966 (Simulation time: 0 hr 25 min 27 sec) 
Heartbeat CPU 0 instructions: 56000000 cycles: 89165261 heartbeat IPC: 0.557572 cumulative IPC: 0.553066 (Simulation time: 0 hr 25 min 53 sec) 
Heartbeat CPU 0 instructions: 57000001 cycles: 90919839 heartbeat IPC: 0.569938 cumulative IPC: 0.553414 (Simulation time: 0 hr 26 min 19 sec) 
Heartbeat CPU 0 instructions: 58000001 cycles: 92740141 heartbeat IPC: 0.549359 cumulative IPC: 0.553329 (Simulation time: 0 hr 26 min 45 sec) 
Heartbeat CPU 0 instructions: 59000000 cycles: 94565484 heartbeat IPC: 0.547842 cumulative IPC: 0.553216 (Simulation time: 0 hr 27 min 15 sec) 
Heartbeat CPU 0 instructions: 60000000 cycles: 96393069 heartbeat IPC: 0.54717 cumulative IPC: 0.553094 (Simulation time: 0 hr 27 min 42 sec) 
Heartbeat CPU 0 instructions: 61000001 cycles: 98148237 heartbeat IPC: 0.569747 cumulative IPC: 0.553411 (Simulation time: 0 hr 28 min 8 sec) 
Heartbeat CPU 0 instructions: 62000001 cycles: 99929207 heartbeat IPC: 0.561492 cumulative IPC: 0.553564 (Simulation time: 0 hr 28 min 35 sec) 
Heartbeat CPU 0 instructions: 63000002 cycles: 101761326 heartbeat IPC: 0.545817 cumulative IPC: 0.553416 (Simulation time: 0 hr 29 min 2 sec) 
Heartbeat CPU 0 instructions: 64000000 cycles: 103588109 heartbeat IPC: 0.547409 cumulative IPC: 0.553304 (Simulation time: 0 hr 29 min 39 sec) 
Heartbeat CPU 0 instructions: 65000000 cycles: 105404681 heartbeat IPC: 0.550487 cumulative IPC: 0.553252 (Simulation time: 0 hr 30 min 9 sec) 
Heartbeat CPU 0 instructions: 66000001 cycles: 107144247 heartbeat IPC: 0.574857 cumulative IPC: 0.553624 (Simulation time: 0 hr 30 min 39 sec) 
Heartbeat CPU 0 instructions: 67000002 cycles: 108941891 heartbeat IPC: 0.556284 cumulative IPC: 0.55367 (Simulation time: 0 hr 31 min 10 sec) 
Heartbeat CPU 0 instructions: 68000000 cycles: 110773274 heartbeat IPC: 0.546034 cumulative IPC: 0.553537 (Simulation time: 0 hr 31 min 38 sec) 
Heartbeat CPU 0 instructions: 69000001 cycles: 112599362 heartbeat IPC: 0.547619 cumulative IPC: 0.553435 (Simulation time: 0 hr 32 min 8 sec) 
Heartbeat CPU 0 instructions: 70000000 cycles: 114391164 heartbeat IPC: 0.558097 cumulative IPC: 0.553512 (Simulation time: 0 hr 32 min 37 sec) 
Heartbeat CPU 0 instructions: 71000001 cycles: 116137581 heartbeat IPC: 0.572601 cumulative IPC: 0.553815 (Simulation time: 0 hr 33 min 5 sec) 
Heartbeat CPU 0 instructions: 72000000 cycles: 117963072 heartbeat IPC: 0.547797 cumulative IPC: 0.553717 (Simulation time: 0 hr 33 min 33 sec) 
Heartbeat CPU 0 instructions: 73000001 cycles: 119795932 heartbeat IPC: 0.545596 cumulative IPC: 0.553586 (Simulation time: 0 hr 34 min 1 sec) 
Heartbeat CPU 0 instructions: 74000000 cycles: 121626444 heartbeat IPC: 0.546295 cumulative IPC: 0.553471 (Simulation time: 0 hr 34 min 29 sec) 
Heartbeat CPU 0 instructions: 75000002 cycles: 123399776 heartbeat IPC: 0.563911 cumulative IPC: 0.553628 (Simulation time: 0 hr 34 min 56 sec) 
Heartbeat CPU 0 instructions: 76000000 cycles: 125170665 heartbeat IPC: 0.564687 cumulative IPC: 0.553793 (Simulation time: 0 hr 35 min 25 sec) 
Heartbeat CPU 0 instructions: 77000003 cycles: 126995828 heartbeat IPC: 0.547898 cumulative IPC: 0.553704 (Simulation time: 0 hr 35 min 54 sec) 
Heartbeat CPU 0 instructions: 78000000 cycles: 128822132 heartbeat IPC: 0.547552 cumulative IPC: 0.553612 (Simulation time: 0 hr 36 min 23 sec) 
Heartbeat CPU 0 instructions: 79000000 cycles: 130653561 heartbeat IPC: 0.546022 cumulative IPC: 0.553501 (Simulation time: 0 hr 36 min 52 sec) 
Heartbeat CPU 0 instructions: 80000000 cycles: 132398261 heartbeat IPC: 0.573164 cumulative IPC: 0.553772 (Simulation time: 0 hr 37 min 18 sec) 
Heartbeat CPU 0 instructions: 81000003 cycles: 134207307 heartbeat IPC: 0.552779 cumulative IPC: 0.553758 (Simulation time: 0 hr 37 min 44 sec) 
Heartbeat CPU 0 instructions: 82000002 cycles: 136044288 heartbeat IPC: 0.544371 cumulative IPC: 0.553626 (Simulation time: 0 hr 38 min 11 sec) 
Heartbeat CPU 0 instructions: 83000001 cycles: 137876333 heartbeat IPC: 0.545838 cumulative IPC: 0.553517 (Simulation time: 0 hr 38 min 35 sec) 
Heartbeat CPU 0 instructions: 84000000 cycles: 139678195 heartbeat IPC: 0.554981 cumulative IPC: 0.553537 (Simulation time: 0 hr 38 min 58 sec) 
Heartbeat CPU 0 instructions: 85000000 cycles: 141427162 heartbeat IPC: 0.571766 cumulative IPC: 0.553773 (Simulation time: 0 hr 39 min 22 sec) 
Heartbeat CPU 0 instructions: 86000001 cycles: 143257184 heartbeat IPC: 0.546442 cumulative IPC: 0.553675 (Simulation time: 0 hr 39 min 46 sec) 
Heartbeat CPU 0 instructions: 87000000 cycles: 145086369 heartbeat IPC: 0.546691 cumulative IPC: 0.553583 (Simulation time: 0 hr 40 min 11 sec) 
Heartbeat CPU 0 instructions: 88000000 cycles: 146907939 heartbeat IPC: 0.548977 cumulative IPC: 0.553523 (Simulation time: 0 hr 40 min 35 sec) 
Heartbeat CPU 0 instructions: 89000000 cycles: 148678694 heartbeat IPC: 0.564731 cumulative IPC: 0.553663 (Simulation time: 0 hr 40 min 56 sec) 
Heartbeat CPU 0 instructions: 90000000 cycles: 150471882 heartbeat IPC: 0.557666 cumulative IPC: 0.553712 (Simulation time: 0 hr 41 min 18 sec) 
Heartbeat CPU 0 instructions: 91000001 cycles: 152296687 heartbeat IPC: 0.548004 cumulative IPC: 0.553641 (Simulation time: 0 hr 41 min 40 sec) 
Heartbeat CPU 0 instructions: 92000000 cycles: 154124079 heartbeat IPC: 0.547227 cumulative IPC: 0.553562 (Simulation time: 0 hr 42 min 2 sec) 
Heartbeat CPU 0 instructions: 93000003 cycles: 155935462 heartbeat IPC: 0.552066 cumulative IPC: 0.553544 (Simulation time: 0 hr 42 min 23 sec) 
Heartbeat CPU 0 instructions: 94000001 cycles: 157700051 heartbeat IPC: 0.566703 cumulative IPC: 0.553697 (Simulation time: 0 hr 42 min 42 sec) 
Heartbeat CPU 0 instructions: 95000001 cycles: 159533900 heartbeat IPC: 0.545301 cumulative IPC: 0.553597 (Simulation time: 0 hr 43 min 3 sec) 
Heartbeat CPU 0 instructions: 96000000 cycles: 161366713 heartbeat IPC: 0.545609 cumulative IPC: 0.553502 (Simulation time: 0 hr 43 min 21 sec) 
Heartbeat CPU 0 instructions: 97000000 cycles: 163198703 heartbeat IPC: 0.545855 cumulative IPC: 0.553413 (Simulation time: 0 hr 43 min 40 sec) 
Heartbeat CPU 0 instructions: 98000000 cycles: 164983073 heartbeat IPC: 0.560422 cumulative IPC: 0.553492 (Simulation time: 0 hr 43 min 57 sec) 
Heartbeat CPU 0 instructions: 99000000 cycles: 166776487 heartbeat IPC: 0.557596 cumulative IPC: 0.553538 (Simulation time: 0 hr 44 min 14 sec) 
Heartbeat CPU 0 instructions: 100000000 cycles: 168601947 heartbeat IPC: 0.547807 cumulative IPC: 0.553473 (Simulation time: 0 hr 44 min 31 sec) 
Heartbeat CPU 0 instructions: 101000000 cycles: 170424238 heartbeat IPC: 0.54876 cumulative IPC: 0.553421 (Simulation time: 0 hr 44 min 48 sec) 
Heartbeat CPU 0 instructions: 102000003 cycles: 172242228 heartbeat IPC: 0.55006 cumulative IPC: 0.553384 (Simulation time: 0 hr 45 min 4 sec) 
Heartbeat CPU 0 instructions: 103000001 cycles: 174009122 heartbeat IPC: 0.565964 cumulative IPC: 0.553517 (Simulation time: 0 hr 45 min 19 sec) 
Heartbeat CPU 0 instructions: 104000000 cycles: 175836844 heartbeat IPC: 0.547129 cumulative IPC: 0.553448 (Simulation time: 0 hr 45 min 34 sec) 
Heartbeat CPU 0 instructions: 105000002 cycles: 177664166 heartbeat IPC: 0.54725 cumulative IPC: 0.553382 (Simulation time: 0 hr 45 min 49 sec) 
Heartbeat CPU 0 instructions: 106000001 cycles: 179486126 heartbeat IPC: 0.548859 cumulative IPC: 0.553334 (Simulation time: 0 hr 46 min 2 sec) 
Heartbeat CPU 0 instructions: 107000003 cycles: 181266127 heartbeat IPC: 0.561799 cumulative IPC: 0.55342 (Simulation time: 0 hr 46 min 15 sec) 
Heartbeat CPU 0 instructions: 108000000 cycles: 183072761 heartbeat IPC: 0.553514 cumulative IPC: 0.553421 (Simulation time: 0 hr 46 min 26 sec) 
Heartbeat CPU 0 instructions: 109000002 cycles: 184904983 heartbeat IPC: 0.545786 cumulative IPC: 0.553343 (Simulation time: 0 hr 46 min 37 sec) 
Heartbeat CPU 0 instructions: 110000003 cycles: 186727797 heartbeat IPC: 0.548603 cumulative IPC: 0.553295 (Simulation time: 0 hr 46 min 48 sec) 
Finished CPU 0 instructions: 100000000 cycles: 180735293 cummulative IPC: 0.553295 (Simulation time: 0 hr 46 min 48 sec) 

ChampSim completed all CPUs

Region of Interest Statistics

CPU 0 cummulative IPC: 0.553295 instructions: 100000000 cycles: 180735293
LLC TOTAL     ACCESS:     119554  HIT:      41627  MISS:      77927
LLC LOAD      ACCESS:      80540  HIT:       3572  MISS:      76968
LLC RFO       ACCESS:       1075  HIT:        168  MISS:        907
LLC PREFETCH  ACCESS:          0  HIT:          0  MISS:          0
LLC WRITEBACK ACCESS:      37939  HIT:      37887  MISS:         52
