
*** ChampSim Multicore Out-of-Order Simulator ***

Warmup Instructions: 10000000
Simulation Instructions: 100000000
Configuration: 1
Number of CPUs: 1
LLC sets: 2048
LLC ways: 16
Off-chip DRAM Channels: 1 Width: 64-bit Data Rate: 1600 MT/s

CPU 0 runs /datasets/cs240c-wi22-a00-public/data/Assignment2-gz/omnetpp_340B.trace.gz
Heartbeat CPU 0 instructions: 1000001 cycles: 578280 heartbeat IPC: 1.72927 cumulative IPC: 1.72927 (Simulation time: 0 hr 0 min 29 sec) 
Heartbeat CPU 0 instructions: 2000000 cycles: 1162467 heartbeat IPC: 1.71178 cumulative IPC: 1.72048 (Simulation time: 0 hr 0 min 56 sec) 
Heartbeat CPU 0 instructions: 3000001 cycles: 1760250 heartbeat IPC: 1.67285 cumulative IPC: 1.7043 (Simulation time: 0 hr 1 min 23 sec) 
Heartbeat CPU 0 instructions: 4000000 cycles: 2381489 heartbeat IPC: 1.60968 cumulative IPC: 1.67962 (Simulation time: 0 hr 1 min 51 sec) 
Heartbeat CPU 0 instructions: 5000002 cycles: 2957045 heartbeat IPC: 1.73745 cumulative IPC: 1.69088 (Simulation time: 0 hr 2 min 19 sec) 
Heartbeat CPU 0 instructions: 6000003 cycles: 3559488 heartbeat IPC: 1.65991 cumulative IPC: 1.68564 (Simulation time: 0 hr 2 min 49 sec) 
Heartbeat CPU 0 instructions: 7000003 cycles: 4209724 heartbeat IPC: 1.5379 cumulative IPC: 1.66282 (Simulation time: 0 hr 3 min 22 sec) 
Heartbeat CPU 0 instructions: 8000000 cycles: 4805293 heartbeat IPC: 1.67906 cumulative IPC: 1.66483 (Simulation time: 0 hr 3 min 49 sec) 
Heartbeat CPU 0 instructions: 9000002 cycles: 5438389 heartbeat IPC: 1.57954 cumulative IPC: 1.6549 (Simulation time: 0 hr 4 min 15 sec) 
Heartbeat CPU 0 instructions: 10000002 cycles: 6034414 heartbeat IPC: 1.67778 cumulative IPC: 1.65716 (Simulation time: 0 hr 4 min 43 sec) 

Warmup complete CPU 0 instructions: 10000002 cycles: 6034414 (Simulation time: 0 hr 4 min 43 sec) 

Heartbeat CPU 0 instructions: 11000000 cycles: 9826633 heartbeat IPC: 0.263697 cumulative IPC: 0.263697 (Simulation time: 0 hr 5 min 17 sec) 
Heartbeat CPU 0 instructions: 12000000 cycles: 13613729 heartbeat IPC: 0.264055 cumulative IPC: 0.263876 (Simulation time: 0 hr 5 min 50 sec) 
Heartbeat CPU 0 instructions: 13000000 cycles: 17766928 heartbeat IPC: 0.240778 cumulative IPC: 0.2557 (Simulation time: 0 hr 6 min 27 sec) 
Heartbeat CPU 0 instructions: 14000001 cycles: 21874384 heartbeat IPC: 0.24346 cumulative IPC: 0.252526 (Simulation time: 0 hr 7 min 1 sec) 
Heartbeat CPU 0 instructions: 15000003 cycles: 26324310 heartbeat IPC: 0.224723 cumulative IPC: 0.246428 (Simulation time: 0 hr 7 min 43 sec) 
Heartbeat CPU 0 instructions: 16000000 cycles: 30931750 heartbeat IPC: 0.21704 cumulative IPC: 0.24099 (Simulation time: 0 hr 8 min 21 sec) 
Heartbeat CPU 0 instructions: 17000000 cycles: 35074951 heartbeat IPC: 0.241359 cumulative IPC: 0.241042 (Simulation time: 0 hr 8 min 59 sec) 
Heartbeat CPU 0 instructions: 18000000 cycles: 39288003 heartbeat IPC: 0.237358 cumulative IPC: 0.240575 (Simulation time: 0 hr 9 min 36 sec) 
Heartbeat CPU 0 instructions: 19000000 cycles: 43826763 heartbeat IPC: 0.220324 cumulative IPC: 0.238143 (Simulation time: 0 hr 10 min 13 sec) 
Heartbeat CPU 0 instructions: 20000000 cycles: 48364975 heartbeat IPC: 0.220351 cumulative IPC: 0.236236 (Simulation time: 0 hr 10 min 48 sec) 
Heartbeat CPU 0 instructions: 21000000 cycles: 52077588 heartbeat IPC: 0.269352 cumulative IPC: 0.238906 (Simulation time: 0 hr 11 min 23 sec) 
Heartbeat CPU 0 instructions: 22000001 cycles: 56144225 heartbeat IPC: 0.245904 cumulative IPC: 0.239474 (Simulation time: 0 hr 11 min 58 sec) 
Heartbeat CPU 0 instructions: 23000001 cycles: 60198974 heartbeat IPC: 0.246624 cumulative IPC: 0.240009 (Simulation time: 0 hr 12 min 37 sec) 
Heartbeat CPU 0 instructions: 24000000 cycles: 64283699 heartbeat IPC: 0.244814 cumulative IPC: 0.240346 (Simulation time: 0 hr 13 min 13 sec) 
Heartbeat CPU 0 instructions: 25000000 cycles: 68400823 heartbeat IPC: 0.242888 cumulative IPC: 0.240514 (Simulation time: 0 hr 13 min 51 sec) 
Heartbeat CPU 0 instructions: 26000001 cycles: 72628863 heartbeat IPC: 0.236516 cumulative IPC: 0.24026 (Simulation time: 0 hr 14 min 30 sec) 
Heartbeat CPU 0 instructions: 27000000 cycles: 77036604 heartbeat IPC: 0.226873 cumulative IPC: 0.239429 (Simulation time: 0 hr 15 min 9 sec) 
Heartbeat CPU 0 instructions: 28000000 cycles: 81546362 heartbeat IPC: 0.221741 cumulative IPC: 0.238373 (Simulation time: 0 hr 15 min 50 sec) 
Heartbeat CPU 0 instructions: 29000000 cycles: 85907056 heartbeat IPC: 0.229321 cumulative IPC: 0.237879 (Simulation time: 0 hr 16 min 28 sec) 
Heartbeat CPU 0 instructions: 30000000 cycles: 89750091 heartbeat IPC: 0.260211 cumulative IPC: 0.238904 (Simulation time: 0 hr 17 min 8 sec) 
Heartbeat CPU 0 instructions: 31000000 cycles: 93906909 heartbeat IPC: 0.240569 cumulative IPC: 0.238983 (Simulation time: 0 hr 17 min 49 sec) 
Heartbeat CPU 0 instructions: 32000000 cycles: 97829888 heartbeat IPC: 0.254908 cumulative IPC: 0.239663 (Simulation time: 0 hr 18 min 27 sec) 
Heartbeat CPU 0 instructions: 33000003 cycles: 101818724 heartbeat IPC: 0.2507 cumulative IPC: 0.240123 (Simulation time: 0 hr 19 min 5 sec) 
Heartbeat CPU 0 instructions: 34000001 cycles: 106281954 heartbeat IPC: 0.224053 cumulative IPC: 0.239407 (Simulation time: 0 hr 19 min 45 sec) 
Heartbeat CPU 0 instructions: 35000002 cycles: 110159340 heartbeat IPC: 0.257906 cumulative IPC: 0.240096 (Simulation time: 0 hr 20 min 22 sec) 
Heartbeat CPU 0 instructions: 36000000 cycles: 114799810 heartbeat IPC: 0.215495 cumulative IPC: 0.239047 (Simulation time: 0 hr 21 min 6 sec) 
Heartbeat CPU 0 instructions: 37000000 cycles: 119692298 heartbeat IPC: 0.204395 cumulative IPC: 0.237555 (Simulation time: 0 hr 21 min 46 sec) 
Heartbeat CPU 0 instructions: 38000000 cycles: 123857367 heartbeat IPC: 0.240092 cumulative IPC: 0.237645 (Simulation time: 0 hr 22 min 25 sec) 
Heartbeat CPU 0 instructions: 39000001 cycles: 128415766 heartbeat IPC: 0.219375 cumulative IPC: 0.236964 (Simulation time: 0 hr 23 min 4 sec) 
Heartbeat CPU 0 instructions: 40000000 cycles: 132218927 heartbeat IPC: 0.262939 cumulative IPC: 0.237747 (Simulation time: 0 hr 23 min 39 sec) 
Heartbeat CPU 0 instructions: 41000000 cycles: 136108301 heartbeat IPC: 0.257111 cumulative IPC: 0.238326 (Simulation time: 0 hr 24 min 14 sec) 
Heartbeat CPU 0 instructions: 42000001 cycles: 140629987 heartbeat IPC: 0.221157 cumulative IPC: 0.237749 (Simulation time: 0 hr 24 min 56 sec) 
Heartbeat CPU 0 instructions: 43000001 cycles: 145278636 heartbeat IPC: 0.215116 cumulative IPC: 0.236994 (Simulation time: 0 hr 25 min 39 sec) 
Heartbeat CPU 0 instructions: 44000000 cycles: 149481239 heartbeat IPC: 0.237948 cumulative IPC: 0.237022 (Simulation time: 0 hr 26 min 18 sec) 
Heartbeat CPU 0 instructions: 45000003 cycles: 153652605 heartbeat IPC: 0.23973 cumulative IPC: 0.237098 (Simulation time: 0 hr 26 min 57 sec) 
Heartbeat CPU 0 instructions: 46000003 cycles: 157932501 heartbeat IPC: 0.233651 cumulative IPC: 0.237001 (Simulation time: 0 hr 27 min 36 sec) 
Heartbeat CPU 0 instructions: 47000000 cycles: 161187113 heartbeat IPC: 0.307255 cumulative IPC: 0.238475 (Simulation time: 0 hr 28 min 8 sec) 
Heartbeat CPU 0 instructions: 48000000 cycles: 165339540 heartbeat IPC: 0.240823 cumulative IPC: 0.238536 (Simulation time: 0 hr 28 min 44 sec) 
Heartbeat CPU 0 instructions: 49000000 cycles: 168503404 heartbeat IPC: 0.316069 cumulative IPC: 0.240046 (Simulation time: 0 hr 29 min 15 sec) 
Heartbeat CPU 0 instructions: 50000001 cycles: 172866637 heartbeat IPC: 0.229188 cumulative IPC: 0.239762 (Simulation time: 0 hr 29 min 51 sec) 
Heartbeat CPU 0 instructions: 51000003 cycles: 176882797 heartbeat IPC: 0.248995 cumulative IPC: 0.239979 (Simulation time: 0 hr 30 min 30 sec) 
Heartbeat CPU 0 instructions: 52000000 cycles: 181311568 heartbeat IPC: 0.225796 cumulative IPC: 0.23962 (Simulation time: 0 hr 31 min 11 sec) 
Heartbeat CPU 0 instructions: 53000000 cycles: 186444966 heartbeat IPC: 0.194803 cumulative IPC: 0.238345 (Simulation time: 0 hr 31 min 53 sec) 
Heartbeat CPU 0 instructions: 54000002 cycles: 191064835 heartbeat IPC: 0.216457 cumulative IPC: 0.237799 (Simulation time: 0 hr 32 min 36 sec) 
Heartbeat CPU 0 instructions: 55000001 cycles: 195324273 heartbeat IPC: 0.234773 cumulative IPC: 0.237731 (Simulation time: 0 hr 33 min 17 sec) 
Heartbeat CPU 0 instructions: 56000000 cycles: 200012467 heartbeat IPC: 0.213302 cumulative IPC: 0.23714 (Simulation time: 0 hr 33 min 57 sec) 
Heartbeat CPU 0 instructions: 57000001 cycles: 204448818 heartbeat IPC: 0.225411 cumulative IPC: 0.236878 (Simulation time: 0 hr 34 min 34 sec) 
Heartbeat CPU 0 instructions: 58000000 cycles: 208089262 heartbeat IPC: 0.274691 cumulative IPC: 0.237559 (Simulation time: 0 hr 35 min 12 sec) 
Heartbeat CPU 0 instructions: 59000003 cycles: 212423252 heartbeat IPC: 0.230735 cumulative IPC: 0.237416 (Simulation time: 0 hr 35 min 52 sec) 
Heartbeat CPU 0 instructions: 60000000 cycles: 217218568 heartbeat IPC: 0.208536 cumulative IPC: 0.23676 (Simulation time: 0 hr 36 min 27 sec) 
Heartbeat CPU 0 instructions: 61000001 cycles: 222256035 heartbeat IPC: 0.198513 cumulative IPC: 0.235869 (Simulation time: 0 hr 37 min 0 sec) 
Heartbeat CPU 0 instructions: 62000000 cycles: 227356944 heartbeat IPC: 0.196043 cumulative IPC: 0.234951 (Simulation time: 0 hr 37 min 37 sec) 
Heartbeat CPU 0 instructions: 63000001 cycles: 231666339 heartbeat IPC: 0.232051 cumulative IPC: 0.234896 (Simulation time: 0 hr 38 min 13 sec) 
Heartbeat CPU 0 instructions: 64000000 cycles: 235871644 heartbeat IPC: 0.237795 cumulative IPC: 0.234949 (Simulation time: 0 hr 38 min 45 sec) 
Heartbeat CPU 0 instructions: 65000001 cycles: 239595860 heartbeat IPC: 0.268513 cumulative IPC: 0.235484 (Simulation time: 0 hr 39 min 14 sec) 
Heartbeat CPU 0 instructions: 66000002 cycles: 243548935 heartbeat IPC: 0.252968 cumulative IPC: 0.235775 (Simulation time: 0 hr 39 min 40 sec) 
Heartbeat CPU 0 instructions: 67000002 cycles: 247687462 heartbeat IPC: 0.241632 cumulative IPC: 0.235875 (Simulation time: 0 hr 40 min 8 sec) 
Heartbeat CPU 0 instructions: 68000000 cycles: 251755223 heartbeat IPC: 0.245835 cumulative IPC: 0.23604 (Simulation time: 0 hr 40 min 36 sec) 
Heartbeat CPU 0 instructions: 69000000 cycles: 255878429 heartbeat IPC: 0.24253 cumulative IPC: 0.236147 (Simulation time: 0 hr 41 min 4 sec) 
Heartbeat CPU 0 instructions: 70000001 cycles: 259466202 heartbeat IPC: 0.278725 cumulative IPC: 0.23675 (Simulation time: 0 hr 41 min 28 sec) 
Heartbeat CPU 0 instructions: 71000003 cycles: 263646922 heartbeat IPC: 0.239194 cumulative IPC: 0.23679 (Simulation time: 0 hr 41 min 52 sec) 
Heartbeat CPU 0 instructions: 72000000 cycles: 268497300 heartbeat IPC: 0.206169 cumulative IPC: 0.236224 (Simulation time: 0 hr 42 min 17 sec) 
Heartbeat CPU 0 instructions: 73000002 cycles: 272801645 heartbeat IPC: 0.232324 cumulative IPC: 0.236161 (Simulation time: 0 hr 42 min 39 sec) 
Heartbeat CPU 0 instructions: 74000000 cycles: 276872949 heartbeat IPC: 0.245621 cumulative IPC: 0.236303 (Simulation time: 0 hr 43 min 3 sec) 
Heartbeat CPU 0 instructions: 75000003 cycles: 281367006 heartbeat IPC: 0.222517 cumulative IPC: 0.236078 (Simulation time: 0 hr 43 min 27 sec) 
Heartbeat CPU 0 instructions: 76000000 cycles: 285619635 heartbeat IPC: 0.235148 cumulative IPC: 0.236064 (Simulation time: 0 hr 43 min 51 sec) 
Heartbeat CPU 0 instructions: 77000002 cycles: 290897648 heartbeat IPC: 0.189466 cumulative IPC: 0.235201 (Simulation time: 0 hr 44 min 14 sec) 
Heartbeat CPU 0 instructions: 78000003 cycles: 295187065 heartbeat IPC: 0.233132 cumulative IPC: 0.23517 (Simulation time: 0 hr 44 min 34 sec) 
Heartbeat CPU 0 instructions: 79000002 cycles: 299416480 heartbeat IPC: 0.236439 cumulative IPC: 0.235188 (Simulation time: 0 hr 44 min 53 sec) 
Heartbeat CPU 0 instructions: 80000000 cycles: 303645502 heartbeat IPC: 0.236461 cumulative IPC: 0.235206 (Simulation time: 0 hr 45 min 12 sec) 
Heartbeat CPU 0 instructions: 81000002 cycles: 308239253 heartbeat IPC: 0.217687 cumulative IPC: 0.23494 (Simulation time: 0 hr 45 min 30 sec) 
Heartbeat CPU 0 instructions: 82000000 cycles: 313108609 heartbeat IPC: 0.205366 cumulative IPC: 0.234471 (Simulation time: 0 hr 45 min 49 sec) 
Heartbeat CPU 0 instructions: 83000002 cycles: 317221299 heartbeat IPC: 0.24315 cumulative IPC: 0.234586 (Simulation time: 0 hr 46 min 6 sec) 
Heartbeat CPU 0 instructions: 84000000 cycles: 321579924 heartbeat IPC: 0.22943 cumulative IPC: 0.234515 (Simulation time: 0 hr 46 min 22 sec) 
Heartbeat CPU 0 instructions: 85000000 cycles: 325455990 heartbeat IPC: 0.257994 cumulative IPC: 0.234799 (Simulation time: 0 hr 46 min 34 sec) 
Heartbeat CPU 0 instructions: 86000000 cycles: 329570335 heartbeat IPC: 0.243052 cumulative IPC: 0.234904 (Simulation time: 0 hr 46 min 46 sec) 
Heartbeat CPU 0 instructions: 87000001 cycles: 333670048 heartbeat IPC: 0.24392 cumulative IPC: 0.235017 (Simulation time: 0 hr 46 min 58 sec) 
Heartbeat CPU 0 instructions: 88000000 cycles: 337755871 heartbeat IPC: 0.244748 cumulative IPC: 0.235137 (Simulation time: 0 hr 47 min 10 sec) 
Heartbeat CPU 0 instructions: 89000003 cycles: 341394977 heartbeat IPC: 0.274794 cumulative IPC: 0.235567 (Simulation time: 0 hr 47 min 20 sec) 
Heartbeat CPU 0 instructions: 90000000 cycles: 345508912 heartbeat IPC: 0.243076 cumulative IPC: 0.235658 (Simulation time: 0 hr 47 min 30 sec) 
Heartbeat CPU 0 instructions: 91000001 cycles: 349276842 heartbeat IPC: 0.265398 cumulative IPC: 0.235985 (Simulation time: 0 hr 47 min 40 sec) 
Heartbeat CPU 0 instructions: 92000000 cycles: 353653063 heartbeat IPC: 0.228507 cumulative IPC: 0.235891 (Simulation time: 0 hr 47 min 50 sec) 
Heartbeat CPU 0 instructions: 93000001 cycles: 358552641 heartbeat IPC: 0.204099 cumulative IPC: 0.235449 (Simulation time: 0 hr 47 min 58 sec) 
Heartbeat CPU 0 instructions: 94000001 cycles: 362684303 heartbeat IPC: 0.242033 cumulative IPC: 0.235525 (Simulation time: 0 hr 48 min 6 sec) 
Heartbeat CPU 0 instructions: 95000000 cycles: 367091748 heartbeat IPC: 0.226889 cumulative IPC: 0.23542 (Simulation time: 0 hr 48 min 13 sec) 
Heartbeat CPU 0 instructions: 96000000 cycles: 371913253 heartbeat IPC: 0.207404 cumulative IPC: 0.23505 (Simulation time: 0 hr 48 min 20 sec) 
Heartbeat CPU 0 instructions: 97000000 cycles: 375933997 heartbeat IPC: 0.24871 cumulative IPC: 0.235199 (Simulation time: 0 hr 48 min 25 sec) 
Heartbeat CPU 0 instructions: 98000000 cycles: 380569803 heartbeat IPC: 0.215712 cumulative IPC: 0.234958 (Simulation time: 0 hr 48 min 30 sec) 
Heartbeat CPU 0 instructions: 99000000 cycles: 385565765 heartbeat IPC: 0.200162 cumulative IPC: 0.2345 (Simulation time: 0 hr 48 min 34 sec) 
Heartbeat CPU 0 instructions: 100000000 cycles: 390082005 heartbeat IPC: 0.221423 cumulative IPC: 0.234346 (Simulation time: 0 hr 48 min 38 sec) 
Heartbeat CPU 0 instructions: 101000000 cycles: 394433052 heartbeat IPC: 0.22983 cumulative IPC: 0.234295 (Simulation time: 0 hr 48 min 42 sec) 
Heartbeat CPU 0 instructions: 102000003 cycles: 398684329 heartbeat IPC: 0.235224 cumulative IPC: 0.234305 (Simulation time: 0 hr 48 min 46 sec) 
Heartbeat CPU 0 instructions: 103000000 cycles: 402863166 heartbeat IPC: 0.2393 cumulative IPC: 0.234358 (Simulation time: 0 hr 48 min 50 sec) 
Heartbeat CPU 0 instructions: 104000000 cycles: 406902966 heartbeat IPC: 0.247537 cumulative IPC: 0.234491 (Simulation time: 0 hr 48 min 55 sec) 
Heartbeat CPU 0 instructions: 105000003 cycles: 411068768 heartbeat IPC: 0.240051 cumulative IPC: 0.234548 (Simulation time: 0 hr 48 min 59 sec) 
Heartbeat CPU 0 instructions: 106000001 cycles: 414800591 heartbeat IPC: 0.267965 cumulative IPC: 0.234853 (Simulation time: 0 hr 49 min 3 sec) 
Heartbeat CPU 0 instructions: 107000000 cycles: 419355761 heartbeat IPC: 0.219531 cumulative IPC: 0.234684 (Simulation time: 0 hr 49 min 7 sec) 
Heartbeat CPU 0 instructions: 108000000 cycles: 423865194 heartbeat IPC: 0.221757 cumulative IPC: 0.234545 (Simulation time: 0 hr 49 min 12 sec) 
Heartbeat CPU 0 instructions: 109000000 cycles: 428758536 heartbeat IPC: 0.204359 cumulative IPC: 0.234195 (Simulation time: 0 hr 49 min 16 sec) 
Heartbeat CPU 0 instructions: 110000000 cycles: 432820733 heartbeat IPC: 0.246172 cumulative IPC: 0.234309 (Simulation time: 0 hr 49 min 20 sec) 
Finished CPU 0 instructions: 100000000 cycles: 426786323 cummulative IPC: 0.234309 (Simulation time: 0 hr 49 min 20 sec) 

ChampSim completed all CPUs

Region of Interest Statistics

CPU 0 cummulative IPC: 0.234309 instructions: 100000000 cycles: 426786323
LLC TOTAL     ACCESS:    3244346  HIT:    1407841  MISS:    1836505
LLC LOAD      ACCESS:    1933255  HIT:     486415  MISS:    1446840
LLC RFO       ACCESS:     328083  HIT:      81567  MISS:     246516
LLC PREFETCH  ACCESS:          0  HIT:          0  MISS:          0
LLC WRITEBACK ACCESS:     983008  HIT:     839859  MISS:     143149
