
*** ChampSim Multicore Out-of-Order Simulator ***

Warmup Instructions: 10000000
Simulation Instructions: 100000000
Configuration: 1
Number of CPUs: 1
LLC sets: 2048
LLC ways: 16
Off-chip DRAM Channels: 1 Width: 64-bit Data Rate: 1600 MT/s

CPU 0 runs /datasets/cs240c-wi22-a00-public/data/Assignment2-gz/GemsFDTD_716B.trace.gz
Heartbeat CPU 0 instructions: 1000000 cycles: 415494 heartbeat IPC: 2.40677 cumulative IPC: 2.40677 (Simulation time: 0 hr 0 min 23 sec) 
Heartbeat CPU 0 instructions: 2000003 cycles: 830875 heartbeat IPC: 2.40744 cumulative IPC: 2.4071 (Simulation time: 0 hr 0 min 47 sec) 
Heartbeat CPU 0 instructions: 3000000 cycles: 1286935 heartbeat IPC: 2.19269 cumulative IPC: 2.33112 (Simulation time: 0 hr 1 min 9 sec) 
Heartbeat CPU 0 instructions: 4000000 cycles: 1744228 heartbeat IPC: 2.18678 cumulative IPC: 2.29328 (Simulation time: 0 hr 1 min 31 sec) 
Heartbeat CPU 0 instructions: 5000000 cycles: 2159515 heartbeat IPC: 2.40797 cumulative IPC: 2.31533 (Simulation time: 0 hr 1 min 56 sec) 
Heartbeat CPU 0 instructions: 6000000 cycles: 2574823 heartbeat IPC: 2.40785 cumulative IPC: 2.33026 (Simulation time: 0 hr 2 min 20 sec) 
Heartbeat CPU 0 instructions: 7000000 cycles: 2990128 heartbeat IPC: 2.40787 cumulative IPC: 2.34104 (Simulation time: 0 hr 2 min 43 sec) 
Heartbeat CPU 0 instructions: 8000000 cycles: 3403748 heartbeat IPC: 2.41768 cumulative IPC: 2.35035 (Simulation time: 0 hr 3 min 8 sec) 
Heartbeat CPU 0 instructions: 9000001 cycles: 3849067 heartbeat IPC: 2.24558 cumulative IPC: 2.33823 (Simulation time: 0 hr 3 min 35 sec) 
Heartbeat CPU 0 instructions: 10000001 cycles: 4363617 heartbeat IPC: 1.94345 cumulative IPC: 2.29168 (Simulation time: 0 hr 3 min 59 sec) 

Warmup complete CPU 0 instructions: 10000001 cycles: 4363617 (Simulation time: 0 hr 3 min 59 sec) 

Heartbeat CPU 0 instructions: 11000000 cycles: 7812933 heartbeat IPC: 0.289912 cumulative IPC: 0.289912 (Simulation time: 0 hr 4 min 38 sec) 
Heartbeat CPU 0 instructions: 12000000 cycles: 11237202 heartbeat IPC: 0.292033 cumulative IPC: 0.290969 (Simulation time: 0 hr 5 min 15 sec) 
Heartbeat CPU 0 instructions: 13000000 cycles: 14676211 heartbeat IPC: 0.290781 cumulative IPC: 0.290906 (Simulation time: 0 hr 5 min 56 sec) 
Heartbeat CPU 0 instructions: 14000000 cycles: 18312250 heartbeat IPC: 0.275025 cumulative IPC: 0.286766 (Simulation time: 0 hr 6 min 38 sec) 
Heartbeat CPU 0 instructions: 15000000 cycles: 22044354 heartbeat IPC: 0.267945 cumulative IPC: 0.282794 (Simulation time: 0 hr 7 min 18 sec) 
Heartbeat CPU 0 instructions: 16000000 cycles: 25783120 heartbeat IPC: 0.267468 cumulative IPC: 0.280118 (Simulation time: 0 hr 7 min 57 sec) 
Heartbeat CPU 0 instructions: 17000002 cycles: 29526279 heartbeat IPC: 0.267155 cumulative IPC: 0.27819 (Simulation time: 0 hr 8 min 35 sec) 
Heartbeat CPU 0 instructions: 18000003 cycles: 33261321 heartbeat IPC: 0.267735 cumulative IPC: 0.276839 (Simulation time: 0 hr 9 min 15 sec) 
Heartbeat CPU 0 instructions: 19000000 cycles: 36994305 heartbeat IPC: 0.267881 cumulative IPC: 0.275814 (Simulation time: 0 hr 10 min 2 sec) 
Heartbeat CPU 0 instructions: 20000000 cycles: 39976964 heartbeat IPC: 0.335271 cumulative IPC: 0.280794 (Simulation time: 0 hr 10 min 40 sec) 
Heartbeat CPU 0 instructions: 21000000 cycles: 42705764 heartbeat IPC: 0.366461 cumulative IPC: 0.286891 (Simulation time: 0 hr 11 min 15 sec) 
Heartbeat CPU 0 instructions: 22000002 cycles: 45390707 heartbeat IPC: 0.372448 cumulative IPC: 0.29249 (Simulation time: 0 hr 11 min 50 sec) 
Heartbeat CPU 0 instructions: 23000002 cycles: 48066338 heartbeat IPC: 0.373744 cumulative IPC: 0.297464 (Simulation time: 0 hr 12 min 29 sec) 
Heartbeat CPU 0 instructions: 24000000 cycles: 50774008 heartbeat IPC: 0.36932 cumulative IPC: 0.301657 (Simulation time: 0 hr 13 min 5 sec) 
Heartbeat CPU 0 instructions: 25000000 cycles: 53435763 heartbeat IPC: 0.375692 cumulative IPC: 0.305672 (Simulation time: 0 hr 13 min 43 sec) 
Heartbeat CPU 0 instructions: 26000000 cycles: 55811944 heartbeat IPC: 0.420843 cumulative IPC: 0.310992 (Simulation time: 0 hr 14 min 17 sec) 
Heartbeat CPU 0 instructions: 27000002 cycles: 58164822 heartbeat IPC: 0.425012 cumulative IPC: 0.315978 (Simulation time: 0 hr 14 min 53 sec) 
Heartbeat CPU 0 instructions: 28000000 cycles: 60422265 heartbeat IPC: 0.442978 cumulative IPC: 0.321092 (Simulation time: 0 hr 15 min 33 sec) 
Heartbeat CPU 0 instructions: 29000003 cycles: 62742871 heartbeat IPC: 0.430923 cumulative IPC: 0.325458 (Simulation time: 0 hr 16 min 10 sec) 
Heartbeat CPU 0 instructions: 30000002 cycles: 65001757 heartbeat IPC: 0.442696 cumulative IPC: 0.329825 (Simulation time: 0 hr 16 min 44 sec) 
Heartbeat CPU 0 instructions: 31000001 cycles: 66753422 heartbeat IPC: 0.570885 cumulative IPC: 0.336593 (Simulation time: 0 hr 17 min 18 sec) 
Heartbeat CPU 0 instructions: 32000000 cycles: 68516607 heartbeat IPC: 0.567155 cumulative IPC: 0.34293 (Simulation time: 0 hr 17 min 54 sec) 
Heartbeat CPU 0 instructions: 33000000 cycles: 70278023 heartbeat IPC: 0.567725 cumulative IPC: 0.348937 (Simulation time: 0 hr 18 min 29 sec) 
Heartbeat CPU 0 instructions: 34000000 cycles: 72043367 heartbeat IPC: 0.566462 cumulative IPC: 0.354611 (Simulation time: 0 hr 19 min 5 sec) 
Heartbeat CPU 0 instructions: 35000001 cycles: 73803059 heartbeat IPC: 0.568282 cumulative IPC: 0.360026 (Simulation time: 0 hr 19 min 37 sec) 
Heartbeat CPU 0 instructions: 36000000 cycles: 75620771 heartbeat IPC: 0.550142 cumulative IPC: 0.364876 (Simulation time: 0 hr 20 min 13 sec) 
Heartbeat CPU 0 instructions: 37000002 cycles: 77481075 heartbeat IPC: 0.537548 cumulative IPC: 0.369269 (Simulation time: 0 hr 20 min 51 sec) 
Heartbeat CPU 0 instructions: 38000002 cycles: 79264732 heartbeat IPC: 0.560646 cumulative IPC: 0.373826 (Simulation time: 0 hr 21 min 28 sec) 
Heartbeat CPU 0 instructions: 39000000 cycles: 81053056 heartbeat IPC: 0.559182 cumulative IPC: 0.378149 (Simulation time: 0 hr 22 min 1 sec) 
Heartbeat CPU 0 instructions: 40000000 cycles: 82858265 heartbeat IPC: 0.553952 cumulative IPC: 0.382192 (Simulation time: 0 hr 22 min 40 sec) 
Heartbeat CPU 0 instructions: 41000002 cycles: 84652543 heartbeat IPC: 0.557328 cumulative IPC: 0.386106 (Simulation time: 0 hr 23 min 11 sec) 
Heartbeat CPU 0 instructions: 42000001 cycles: 86466721 heartbeat IPC: 0.551213 cumulative IPC: 0.389754 (Simulation time: 0 hr 23 min 45 sec) 
Heartbeat CPU 0 instructions: 43000002 cycles: 89593654 heartbeat IPC: 0.319802 cumulative IPC: 0.387187 (Simulation time: 0 hr 24 min 32 sec) 
Heartbeat CPU 0 instructions: 44000000 cycles: 93054631 heartbeat IPC: 0.288935 cumulative IPC: 0.383353 (Simulation time: 0 hr 25 min 14 sec) 
Heartbeat CPU 0 instructions: 45000001 cycles: 96491358 heartbeat IPC: 0.290975 cumulative IPC: 0.379907 (Simulation time: 0 hr 25 min 53 sec) 
Heartbeat CPU 0 instructions: 46000002 cycles: 100022646 heartbeat IPC: 0.283183 cumulative IPC: 0.376337 (Simulation time: 0 hr 26 min 29 sec) 
Heartbeat CPU 0 instructions: 47000000 cycles: 103547577 heartbeat IPC: 0.283693 cumulative IPC: 0.373044 (Simulation time: 0 hr 27 min 7 sec) 
Heartbeat CPU 0 instructions: 48000000 cycles: 107262623 heartbeat IPC: 0.269176 cumulative IPC: 0.369294 (Simulation time: 0 hr 27 min 50 sec) 
Heartbeat CPU 0 instructions: 49000000 cycles: 110994675 heartbeat IPC: 0.267949 cumulative IPC: 0.365747 (Simulation time: 0 hr 28 min 29 sec) 
Heartbeat CPU 0 instructions: 50000001 cycles: 114719602 heartbeat IPC: 0.268462 cumulative IPC: 0.362463 (Simulation time: 0 hr 29 min 5 sec) 
Heartbeat CPU 0 instructions: 51000000 cycles: 118500838 heartbeat IPC: 0.264464 cumulative IPC: 0.359217 (Simulation time: 0 hr 29 min 46 sec) 
Heartbeat CPU 0 instructions: 52000000 cycles: 122265218 heartbeat IPC: 0.265648 cumulative IPC: 0.356229 (Simulation time: 0 hr 30 min 28 sec) 
Heartbeat CPU 0 instructions: 53000000 cycles: 126127203 heartbeat IPC: 0.258934 cumulative IPC: 0.353143 (Simulation time: 0 hr 31 min 9 sec) 
Heartbeat CPU 0 instructions: 54000001 cycles: 128586950 heartbeat IPC: 0.406546 cumulative IPC: 0.354201 (Simulation time: 0 hr 31 min 45 sec) 
Heartbeat CPU 0 instructions: 55000002 cycles: 130915259 heartbeat IPC: 0.429497 cumulative IPC: 0.355586 (Simulation time: 0 hr 32 min 21 sec) 
Heartbeat CPU 0 instructions: 56000000 cycles: 133288184 heartbeat IPC: 0.42142 cumulative IPC: 0.356798 (Simulation time: 0 hr 32 min 59 sec) 
Heartbeat CPU 0 instructions: 57000002 cycles: 135656329 heartbeat IPC: 0.422272 cumulative IPC: 0.357979 (Simulation time: 0 hr 33 min 35 sec) 
Heartbeat CPU 0 instructions: 58000000 cycles: 137950194 heartbeat IPC: 0.435945 cumulative IPC: 0.359318 (Simulation time: 0 hr 34 min 11 sec) 
Heartbeat CPU 0 instructions: 59000002 cycles: 140488236 heartbeat IPC: 0.394005 cumulative IPC: 0.359964 (Simulation time: 0 hr 34 min 45 sec) 
Heartbeat CPU 0 instructions: 60000000 cycles: 142645084 heartbeat IPC: 0.463639 cumulative IPC: 0.361581 (Simulation time: 0 hr 35 min 19 sec) 
Heartbeat CPU 0 instructions: 61000000 cycles: 144776011 heartbeat IPC: 0.469279 cumulative IPC: 0.363216 (Simulation time: 0 hr 35 min 52 sec) 
Heartbeat CPU 0 instructions: 62000003 cycles: 146848892 heartbeat IPC: 0.482422 cumulative IPC: 0.36495 (Simulation time: 0 hr 36 min 27 sec) 
Heartbeat CPU 0 instructions: 63000000 cycles: 148919580 heartbeat IPC: 0.48293 cumulative IPC: 0.36664 (Simulation time: 0 hr 36 min 56 sec) 
Heartbeat CPU 0 instructions: 64000000 cycles: 150878318 heartbeat IPC: 0.510533 cumulative IPC: 0.368564 (Simulation time: 0 hr 37 min 28 sec) 
Heartbeat CPU 0 instructions: 65000001 cycles: 152635039 heartbeat IPC: 0.569243 cumulative IPC: 0.370941 (Simulation time: 0 hr 37 min 59 sec) 
Heartbeat CPU 0 instructions: 66000001 cycles: 154384110 heartbeat IPC: 0.571732 cumulative IPC: 0.373282 (Simulation time: 0 hr 38 min 26 sec) 
Heartbeat CPU 0 instructions: 67000003 cycles: 156126137 heartbeat IPC: 0.574045 cumulative IPC: 0.375587 (Simulation time: 0 hr 38 min 52 sec) 
Heartbeat CPU 0 instructions: 68000000 cycles: 157880506 heartbeat IPC: 0.570004 cumulative IPC: 0.377809 (Simulation time: 0 hr 39 min 20 sec) 
Heartbeat CPU 0 instructions: 69000000 cycles: 159625646 heartbeat IPC: 0.57302 cumulative IPC: 0.380003 (Simulation time: 0 hr 39 min 49 sec) 
Heartbeat CPU 0 instructions: 70000000 cycles: 161489630 heartbeat IPC: 0.536485 cumulative IPC: 0.381859 (Simulation time: 0 hr 40 min 14 sec) 
Heartbeat CPU 0 instructions: 71000000 cycles: 163267273 heartbeat IPC: 0.562543 cumulative IPC: 0.38388 (Simulation time: 0 hr 40 min 39 sec) 
Heartbeat CPU 0 instructions: 72000000 cycles: 165027984 heartbeat IPC: 0.567952 cumulative IPC: 0.385898 (Simulation time: 0 hr 41 min 5 sec) 
Heartbeat CPU 0 instructions: 73000002 cycles: 166808563 heartbeat IPC: 0.561616 cumulative IPC: 0.387824 (Simulation time: 0 hr 41 min 30 sec) 
Heartbeat CPU 0 instructions: 74000000 cycles: 168582424 heartbeat IPC: 0.563741 cumulative IPC: 0.389724 (Simulation time: 0 hr 41 min 54 sec) 
Heartbeat CPU 0 instructions: 75000000 cycles: 170358914 heartbeat IPC: 0.562908 cumulative IPC: 0.391577 (Simulation time: 0 hr 42 min 15 sec) 
Heartbeat CPU 0 instructions: 76000000 cycles: 172126027 heartbeat IPC: 0.565895 cumulative IPC: 0.393414 (Simulation time: 0 hr 42 min 36 sec) 
Heartbeat CPU 0 instructions: 77000001 cycles: 175539380 heartbeat IPC: 0.292967 cumulative IPC: 0.391411 (Simulation time: 0 hr 43 min 3 sec) 
Heartbeat CPU 0 instructions: 78000000 cycles: 179017658 heartbeat IPC: 0.287498 cumulative IPC: 0.389341 (Simulation time: 0 hr 43 min 28 sec) 
Heartbeat CPU 0 instructions: 79000002 cycles: 182511260 heartbeat IPC: 0.286238 cumulative IPC: 0.387319 (Simulation time: 0 hr 43 min 53 sec) 
Heartbeat CPU 0 instructions: 80000000 cycles: 185991948 heartbeat IPC: 0.287299 cumulative IPC: 0.385402 (Simulation time: 0 hr 44 min 16 sec) 
Heartbeat CPU 0 instructions: 81000000 cycles: 189487535 heartbeat IPC: 0.286075 cumulative IPC: 0.383527 (Simulation time: 0 hr 44 min 38 sec) 
Heartbeat CPU 0 instructions: 82000002 cycles: 193252164 heartbeat IPC: 0.265631 cumulative IPC: 0.381177 (Simulation time: 0 hr 45 min 1 sec) 
Heartbeat CPU 0 instructions: 83000002 cycles: 196976699 heartbeat IPC: 0.26849 cumulative IPC: 0.378998 (Simulation time: 0 hr 45 min 22 sec) 
Heartbeat CPU 0 instructions: 84000000 cycles: 200710297 heartbeat IPC: 0.267838 cumulative IPC: 0.376884 (Simulation time: 0 hr 45 min 43 sec) 
Heartbeat CPU 0 instructions: 85000000 cycles: 204443532 heartbeat IPC: 0.267864 cumulative IPC: 0.37485 (Simulation time: 0 hr 46 min 1 sec) 
Heartbeat CPU 0 instructions: 86000000 cycles: 208201465 heartbeat IPC: 0.266104 cumulative IPC: 0.372845 (Simulation time: 0 hr 46 min 18 sec) 
Heartbeat CPU 0 instructions: 87000000 cycles: 211727279 heartbeat IPC: 0.283622 cumulative IPC: 0.371328 (Simulation time: 0 hr 46 min 32 sec) 
Heartbeat CPU 0 instructions: 88000000 cycles: 213895160 heartbeat IPC: 0.46128 cumulative IPC: 0.372259 (Simulation time: 0 hr 46 min 45 sec) 
Heartbeat CPU 0 instructions: 89000001 cycles: 216008129 heartbeat IPC: 0.473268 cumulative IPC: 0.373267 (Simulation time: 0 hr 46 min 56 sec) 
Heartbeat CPU 0 instructions: 90000002 cycles: 218148069 heartbeat IPC: 0.467303 cumulative IPC: 0.374209 (Simulation time: 0 hr 47 min 8 sec) 
Heartbeat CPU 0 instructions: 91000003 cycles: 220287793 heartbeat IPC: 0.46735 cumulative IPC: 0.375132 (Simulation time: 0 hr 47 min 19 sec) 
Heartbeat CPU 0 instructions: 92000000 cycles: 222405202 heartbeat IPC: 0.472274 cumulative IPC: 0.376075 (Simulation time: 0 hr 47 min 29 sec) 
Heartbeat CPU 0 instructions: 93000002 cycles: 224547326 heartbeat IPC: 0.466827 cumulative IPC: 0.376958 (Simulation time: 0 hr 47 min 39 sec) 
Heartbeat CPU 0 instructions: 94000000 cycles: 226437543 heartbeat IPC: 0.529039 cumulative IPC: 0.378252 (Simulation time: 0 hr 47 min 48 sec) 
Heartbeat CPU 0 instructions: 95000001 cycles: 228318438 heartbeat IPC: 0.531662 cumulative IPC: 0.379541 (Simulation time: 0 hr 47 min 56 sec) 
Heartbeat CPU 0 instructions: 96000000 cycles: 230216325 heartbeat IPC: 0.526901 cumulative IPC: 0.380779 (Simulation time: 0 hr 48 min 3 sec) 
Heartbeat CPU 0 instructions: 97000000 cycles: 232074377 heartbeat IPC: 0.538198 cumulative IPC: 0.382064 (Simulation time: 0 hr 48 min 10 sec) 
Heartbeat CPU 0 instructions: 98000000 cycles: 234143631 heartbeat IPC: 0.483266 cumulative IPC: 0.382975 (Simulation time: 0 hr 48 min 16 sec) 
Heartbeat CPU 0 instructions: 99000001 cycles: 235968859 heartbeat IPC: 0.547877 cumulative IPC: 0.384275 (Simulation time: 0 hr 48 min 21 sec) 
Heartbeat CPU 0 instructions: 100000000 cycles: 237785754 heartbeat IPC: 0.550389 cumulative IPC: 0.385568 (Simulation time: 0 hr 48 min 26 sec) 
Heartbeat CPU 0 instructions: 101000002 cycles: 239587848 heartbeat IPC: 0.554911 cumulative IPC: 0.386865 (Simulation time: 0 hr 48 min 30 sec) 
Heartbeat CPU 0 instructions: 102000002 cycles: 241368230 heartbeat IPC: 0.561677 cumulative IPC: 0.388178 (Simulation time: 0 hr 48 min 33 sec) 
Heartbeat CPU 0 instructions: 103000000 cycles: 243126116 heartbeat IPC: 0.568864 cumulative IPC: 0.389508 (Simulation time: 0 hr 48 min 37 sec) 
Heartbeat CPU 0 instructions: 104000000 cycles: 245155320 heartbeat IPC: 0.492804 cumulative IPC: 0.390379 (Simulation time: 0 hr 48 min 41 sec) 
Heartbeat CPU 0 instructions: 105000003 cycles: 247069673 heartbeat IPC: 0.522371 cumulative IPC: 0.39142 (Simulation time: 0 hr 48 min 44 sec) 
Heartbeat CPU 0 instructions: 106000003 cycles: 248893402 heartbeat IPC: 0.548327 cumulative IPC: 0.39259 (Simulation time: 0 hr 48 min 48 sec) 
Heartbeat CPU 0 instructions: 107000000 cycles: 250706308 heartbeat IPC: 0.551599 cumulative IPC: 0.39376 (Simulation time: 0 hr 48 min 52 sec) 
Heartbeat CPU 0 instructions: 108000000 cycles: 252475384 heartbeat IPC: 0.565267 cumulative IPC: 0.394983 (Simulation time: 0 hr 48 min 55 sec) 
Heartbeat CPU 0 instructions: 109000000 cycles: 254264456 heartbeat IPC: 0.558949 cumulative IPC: 0.396157 (Simulation time: 0 hr 48 min 59 sec) 
Heartbeat CPU 0 instructions: 110000002 cycles: 256365591 heartbeat IPC: 0.475934 cumulative IPC: 0.396822 (Simulation time: 0 hr 49 min 3 sec) 
Finished CPU 0 instructions: 100000001 cycles: 252001974 cummulative IPC: 0.396822 (Simulation time: 0 hr 49 min 3 sec) 

ChampSim completed all CPUs

Region of Interest Statistics

CPU 0 cummulative IPC: 0.396822 instructions: 100000001 cycles: 252001974
LLC TOTAL     ACCESS:    2495433  HIT:    1040099  MISS:    1455334
LLC LOAD      ACCESS:    2296043  HIT:     841403  MISS:    1454640
LLC RFO       ACCESS:          0  HIT:          0  MISS:          0
LLC PREFETCH  ACCESS:          0  HIT:          0  MISS:          0
LLC WRITEBACK ACCESS:     199390  HIT:     198696  MISS:        694
