
*** ChampSim Multicore Out-of-Order Simulator ***

Warmup Instructions: 10000000
Simulation Instructions: 100000000
Configuration: 1
Number of CPUs: 1
LLC sets: 2048
LLC ways: 16
Off-chip DRAM Channels: 1 Width: 64-bit Data Rate: 1600 MT/s

CPU 0 runs /datasets/cs240c-wi22-a00-public/data/Assignment2-gz/leslie3d_1186B.trace.gz
Heartbeat CPU 0 instructions: 1000002 cycles: 557793 heartbeat IPC: 1.79278 cumulative IPC: 1.79278 (Simulation time: 0 hr 0 min 24 sec) 
Heartbeat CPU 0 instructions: 2000000 cycles: 1204525 heartbeat IPC: 1.54623 cumulative IPC: 1.66041 (Simulation time: 0 hr 0 min 49 sec) 
Heartbeat CPU 0 instructions: 3000000 cycles: 1851620 heartbeat IPC: 1.54537 cumulative IPC: 1.6202 (Simulation time: 0 hr 1 min 15 sec) 
Heartbeat CPU 0 instructions: 4000000 cycles: 2452455 heartbeat IPC: 1.66435 cumulative IPC: 1.63102 (Simulation time: 0 hr 1 min 40 sec) 
Heartbeat CPU 0 instructions: 5000000 cycles: 3058482 heartbeat IPC: 1.65009 cumulative IPC: 1.6348 (Simulation time: 0 hr 2 min 4 sec) 
Heartbeat CPU 0 instructions: 6000000 cycles: 3705790 heartbeat IPC: 1.54486 cumulative IPC: 1.61909 (Simulation time: 0 hr 2 min 28 sec) 
Heartbeat CPU 0 instructions: 7000001 cycles: 4352844 heartbeat IPC: 1.54547 cumulative IPC: 1.60814 (Simulation time: 0 hr 2 min 55 sec) 
Heartbeat CPU 0 instructions: 8000000 cycles: 4912285 heartbeat IPC: 1.7875 cumulative IPC: 1.62857 (Simulation time: 0 hr 3 min 18 sec) 
Heartbeat CPU 0 instructions: 9000003 cycles: 5559589 heartbeat IPC: 1.54487 cumulative IPC: 1.61883 (Simulation time: 0 hr 3 min 43 sec) 
Heartbeat CPU 0 instructions: 10000001 cycles: 6207077 heartbeat IPC: 1.54443 cumulative IPC: 1.61106 (Simulation time: 0 hr 4 min 10 sec) 

Warmup complete CPU 0 instructions: 10000001 cycles: 6207077 (Simulation time: 0 hr 4 min 10 sec) 

Heartbeat CPU 0 instructions: 11000001 cycles: 8197962 heartbeat IPC: 0.502289 cumulative IPC: 0.502289 (Simulation time: 0 hr 4 min 43 sec) 
Heartbeat CPU 0 instructions: 12000000 cycles: 10069156 heartbeat IPC: 0.534418 cumulative IPC: 0.517856 (Simulation time: 0 hr 5 min 13 sec) 
Heartbeat CPU 0 instructions: 13000001 cycles: 11867482 heartbeat IPC: 0.556073 cumulative IPC: 0.529997 (Simulation time: 0 hr 5 min 44 sec) 
Heartbeat CPU 0 instructions: 14000000 cycles: 13762262 heartbeat IPC: 0.527765 cumulative IPC: 0.529438 (Simulation time: 0 hr 6 min 14 sec) 
Heartbeat CPU 0 instructions: 15000002 cycles: 15728999 heartbeat IPC: 0.508457 cumulative IPC: 0.525104 (Simulation time: 0 hr 6 min 40 sec) 
Heartbeat CPU 0 instructions: 16000000 cycles: 17554347 heartbeat IPC: 0.54784 cumulative IPC: 0.528761 (Simulation time: 0 hr 7 min 10 sec) 
Heartbeat CPU 0 instructions: 17000000 cycles: 19399420 heartbeat IPC: 0.541984 cumulative IPC: 0.530611 (Simulation time: 0 hr 7 min 39 sec) 
Heartbeat CPU 0 instructions: 18000003 cycles: 21381836 heartbeat IPC: 0.504436 cumulative IPC: 0.527191 (Simulation time: 0 hr 8 min 8 sec) 
Heartbeat CPU 0 instructions: 19000002 cycles: 23230605 heartbeat IPC: 0.5409 cumulative IPC: 0.52868 (Simulation time: 0 hr 8 min 41 sec) 
Heartbeat CPU 0 instructions: 20000000 cycles: 25076695 heartbeat IPC: 0.541684 cumulative IPC: 0.529952 (Simulation time: 0 hr 9 min 12 sec) 
Heartbeat CPU 0 instructions: 21000002 cycles: 26985821 heartbeat IPC: 0.523801 cumulative IPC: 0.529387 (Simulation time: 0 hr 9 min 40 sec) 
Heartbeat CPU 0 instructions: 22000003 cycles: 28913380 heartbeat IPC: 0.518791 cumulative IPC: 0.528488 (Simulation time: 0 hr 10 min 10 sec) 
Heartbeat CPU 0 instructions: 23000002 cycles: 30709437 heartbeat IPC: 0.556775 cumulative IPC: 0.530561 (Simulation time: 0 hr 10 min 39 sec) 
Heartbeat CPU 0 instructions: 24000000 cycles: 32501164 heartbeat IPC: 0.55812 cumulative IPC: 0.532439 (Simulation time: 0 hr 11 min 7 sec) 
Heartbeat CPU 0 instructions: 25000000 cycles: 34497281 heartbeat IPC: 0.500973 cumulative IPC: 0.530219 (Simulation time: 0 hr 11 min 34 sec) 
Heartbeat CPU 0 instructions: 26000002 cycles: 36287888 heartbeat IPC: 0.558471 cumulative IPC: 0.531901 (Simulation time: 0 hr 12 min 4 sec) 
Heartbeat CPU 0 instructions: 27000000 cycles: 38099689 heartbeat IPC: 0.551936 cumulative IPC: 0.533039 (Simulation time: 0 hr 12 min 33 sec) 
Heartbeat CPU 0 instructions: 28000000 cycles: 40058597 heartbeat IPC: 0.510489 cumulative IPC: 0.531734 (Simulation time: 0 hr 13 min 0 sec) 
Heartbeat CPU 0 instructions: 29000002 cycles: 41901157 heartbeat IPC: 0.542724 cumulative IPC: 0.532301 (Simulation time: 0 hr 13 min 30 sec) 
Heartbeat CPU 0 instructions: 30000002 cycles: 43728096 heartbeat IPC: 0.547364 cumulative IPC: 0.533035 (Simulation time: 0 hr 13 min 57 sec) 
Heartbeat CPU 0 instructions: 31000001 cycles: 45566001 heartbeat IPC: 0.544097 cumulative IPC: 0.533551 (Simulation time: 0 hr 14 min 27 sec) 
Heartbeat CPU 0 instructions: 32000000 cycles: 47529108 heartbeat IPC: 0.509396 cumulative IPC: 0.532404 (Simulation time: 0 hr 14 min 54 sec) 
Heartbeat CPU 0 instructions: 33000000 cycles: 49357968 heartbeat IPC: 0.546789 cumulative IPC: 0.533013 (Simulation time: 0 hr 15 min 21 sec) 
Heartbeat CPU 0 instructions: 34000000 cycles: 51173043 heartbeat IPC: 0.550941 cumulative IPC: 0.533737 (Simulation time: 0 hr 15 min 49 sec) 
Heartbeat CPU 0 instructions: 35000002 cycles: 53150302 heartbeat IPC: 0.505752 cumulative IPC: 0.532558 (Simulation time: 0 hr 16 min 19 sec) 
Heartbeat CPU 0 instructions: 36000000 cycles: 55000011 heartbeat IPC: 0.540624 cumulative IPC: 0.532864 (Simulation time: 0 hr 16 min 49 sec) 
Heartbeat CPU 0 instructions: 37000003 cycles: 56861833 heartbeat IPC: 0.53711 cumulative IPC: 0.53302 (Simulation time: 0 hr 17 min 25 sec) 
Heartbeat CPU 0 instructions: 38000001 cycles: 58758845 heartbeat IPC: 0.527144 cumulative IPC: 0.532808 (Simulation time: 0 hr 17 min 52 sec) 
Heartbeat CPU 0 instructions: 39000001 cycles: 60650601 heartbeat IPC: 0.528609 cumulative IPC: 0.532662 (Simulation time: 0 hr 18 min 25 sec) 
Heartbeat CPU 0 instructions: 40000000 cycles: 62485342 heartbeat IPC: 0.545036 cumulative IPC: 0.533065 (Simulation time: 0 hr 18 min 54 sec) 
Heartbeat CPU 0 instructions: 41000000 cycles: 64274794 heartbeat IPC: 0.55883 cumulative IPC: 0.533859 (Simulation time: 0 hr 19 min 23 sec) 
Heartbeat CPU 0 instructions: 42000000 cycles: 66272519 heartbeat IPC: 0.500569 cumulative IPC: 0.532752 (Simulation time: 0 hr 19 min 51 sec) 
Heartbeat CPU 0 instructions: 43000002 cycles: 68022900 heartbeat IPC: 0.571305 cumulative IPC: 0.533844 (Simulation time: 0 hr 20 min 19 sec) 
Heartbeat CPU 0 instructions: 44000000 cycles: 69817018 heartbeat IPC: 0.557376 cumulative IPC: 0.534508 (Simulation time: 0 hr 20 min 50 sec) 
Heartbeat CPU 0 instructions: 45000001 cycles: 71845091 heartbeat IPC: 0.493079 cumulative IPC: 0.533228 (Simulation time: 0 hr 21 min 17 sec) 
Heartbeat CPU 0 instructions: 46000001 cycles: 74117484 heartbeat IPC: 0.440065 cumulative IPC: 0.53011 (Simulation time: 0 hr 21 min 47 sec) 
Heartbeat CPU 0 instructions: 47000002 cycles: 76539383 heartbeat IPC: 0.4129 cumulative IPC: 0.526074 (Simulation time: 0 hr 22 min 19 sec) 
Heartbeat CPU 0 instructions: 48000000 cycles: 78625502 heartbeat IPC: 0.479358 cumulative IPC: 0.524728 (Simulation time: 0 hr 22 min 49 sec) 
Heartbeat CPU 0 instructions: 49000002 cycles: 80957294 heartbeat IPC: 0.428856 cumulative IPC: 0.521738 (Simulation time: 0 hr 23 min 23 sec) 
Heartbeat CPU 0 instructions: 50000002 cycles: 83194528 heartbeat IPC: 0.446981 cumulative IPC: 0.519565 (Simulation time: 0 hr 23 min 51 sec) 
Heartbeat CPU 0 instructions: 51000000 cycles: 85433642 heartbeat IPC: 0.446604 cumulative IPC: 0.517503 (Simulation time: 0 hr 24 min 19 sec) 
Heartbeat CPU 0 instructions: 52000000 cycles: 87525317 heartbeat IPC: 0.478086 cumulative IPC: 0.516489 (Simulation time: 0 hr 24 min 50 sec) 
Heartbeat CPU 0 instructions: 53000003 cycles: 89812748 heartbeat IPC: 0.437173 cumulative IPC: 0.514319 (Simulation time: 0 hr 25 min 20 sec) 
Heartbeat CPU 0 instructions: 54000003 cycles: 91929815 heartbeat IPC: 0.472352 cumulative IPC: 0.513283 (Simulation time: 0 hr 25 min 47 sec) 
Heartbeat CPU 0 instructions: 55000001 cycles: 94237710 heartbeat IPC: 0.433294 cumulative IPC: 0.511186 (Simulation time: 0 hr 26 min 13 sec) 
Heartbeat CPU 0 instructions: 56000000 cycles: 97082329 heartbeat IPC: 0.351541 cumulative IPC: 0.506188 (Simulation time: 0 hr 26 min 42 sec) 
Heartbeat CPU 0 instructions: 57000003 cycles: 99907292 heartbeat IPC: 0.353988 cumulative IPC: 0.5016 (Simulation time: 0 hr 27 min 11 sec) 
Heartbeat CPU 0 instructions: 58000001 cycles: 102838021 heartbeat IPC: 0.341211 cumulative IPC: 0.496735 (Simulation time: 0 hr 27 min 48 sec) 
Heartbeat CPU 0 instructions: 59000003 cycles: 106513689 heartbeat IPC: 0.27206 cumulative IPC: 0.488502 (Simulation time: 0 hr 28 min 22 sec) 
Heartbeat CPU 0 instructions: 60000000 cycles: 110576078 heartbeat IPC: 0.24616 cumulative IPC: 0.479069 (Simulation time: 0 hr 28 min 59 sec) 
Heartbeat CPU 0 instructions: 61000003 cycles: 114596850 heartbeat IPC: 0.248709 cumulative IPC: 0.470524 (Simulation time: 0 hr 29 min 33 sec) 
Heartbeat CPU 0 instructions: 62000001 cycles: 118586441 heartbeat IPC: 0.250652 cumulative IPC: 0.462718 (Simulation time: 0 hr 30 min 11 sec) 
Heartbeat CPU 0 instructions: 63000000 cycles: 121793143 heartbeat IPC: 0.311847 cumulative IPC: 0.458533 (Simulation time: 0 hr 30 min 45 sec) 
Heartbeat CPU 0 instructions: 64000000 cycles: 123572684 heartbeat IPC: 0.561943 cumulative IPC: 0.460101 (Simulation time: 0 hr 31 min 13 sec) 
Heartbeat CPU 0 instructions: 65000000 cycles: 125391497 heartbeat IPC: 0.549809 cumulative IPC: 0.46147 (Simulation time: 0 hr 31 min 42 sec) 
Heartbeat CPU 0 instructions: 66000002 cycles: 127217515 heartbeat IPC: 0.547641 cumulative IPC: 0.46277 (Simulation time: 0 hr 32 min 11 sec) 
Heartbeat CPU 0 instructions: 67000001 cycles: 129029187 heartbeat IPC: 0.551976 cumulative IPC: 0.464086 (Simulation time: 0 hr 32 min 43 sec) 
Heartbeat CPU 0 instructions: 68000000 cycles: 130923598 heartbeat IPC: 0.527868 cumulative IPC: 0.465055 (Simulation time: 0 hr 33 min 13 sec) 
Heartbeat CPU 0 instructions: 69000000 cycles: 132707919 heartbeat IPC: 0.560437 cumulative IPC: 0.4664 (Simulation time: 0 hr 33 min 42 sec) 
Heartbeat CPU 0 instructions: 70000000 cycles: 134514346 heartbeat IPC: 0.553579 cumulative IPC: 0.467627 (Simulation time: 0 hr 34 min 14 sec) 
Heartbeat CPU 0 instructions: 71000000 cycles: 136280258 heartbeat IPC: 0.56628 cumulative IPC: 0.468967 (Simulation time: 0 hr 34 min 45 sec) 
Heartbeat CPU 0 instructions: 72000000 cycles: 138109440 heartbeat IPC: 0.546692 cumulative IPC: 0.470045 (Simulation time: 0 hr 35 min 13 sec) 
Heartbeat CPU 0 instructions: 73000003 cycles: 139948574 heartbeat IPC: 0.543736 cumulative IPC: 0.471058 (Simulation time: 0 hr 35 min 40 sec) 
Heartbeat CPU 0 instructions: 74000000 cycles: 141739485 heartbeat IPC: 0.558373 cumulative IPC: 0.472212 (Simulation time: 0 hr 36 min 9 sec) 
Heartbeat CPU 0 instructions: 75000000 cycles: 143599988 heartbeat IPC: 0.537489 cumulative IPC: 0.473096 (Simulation time: 0 hr 36 min 36 sec) 
Heartbeat CPU 0 instructions: 76000000 cycles: 145386573 heartbeat IPC: 0.559727 cumulative IPC: 0.474208 (Simulation time: 0 hr 37 min 1 sec) 
Heartbeat CPU 0 instructions: 77000000 cycles: 147233224 heartbeat IPC: 0.541521 cumulative IPC: 0.475089 (Simulation time: 0 hr 37 min 28 sec) 
Heartbeat CPU 0 instructions: 78000001 cycles: 149072002 heartbeat IPC: 0.54384 cumulative IPC: 0.475974 (Simulation time: 0 hr 37 min 54 sec) 
Heartbeat CPU 0 instructions: 79000001 cycles: 150944371 heartbeat IPC: 0.534083 cumulative IPC: 0.476726 (Simulation time: 0 hr 38 min 19 sec) 
Heartbeat CPU 0 instructions: 80000000 cycles: 152800630 heartbeat IPC: 0.538717 cumulative IPC: 0.477511 (Simulation time: 0 hr 38 min 42 sec) 
Heartbeat CPU 0 instructions: 81000000 cycles: 154604871 heartbeat IPC: 0.55425 cumulative IPC: 0.478444 (Simulation time: 0 hr 39 min 5 sec) 
Heartbeat CPU 0 instructions: 82000003 cycles: 156446420 heartbeat IPC: 0.543023 cumulative IPC: 0.479235 (Simulation time: 0 hr 39 min 29 sec) 
Heartbeat CPU 0 instructions: 83000001 cycles: 158236475 heartbeat IPC: 0.558641 cumulative IPC: 0.48017 (Simulation time: 0 hr 39 min 53 sec) 
Heartbeat CPU 0 instructions: 84000000 cycles: 160053385 heartbeat IPC: 0.550384 cumulative IPC: 0.480999 (Simulation time: 0 hr 40 min 15 sec) 
Heartbeat CPU 0 instructions: 85000001 cycles: 161846810 heartbeat IPC: 0.557593 cumulative IPC: 0.481882 (Simulation time: 0 hr 40 min 36 sec) 
Heartbeat CPU 0 instructions: 86000003 cycles: 163652770 heartbeat IPC: 0.553723 cumulative IPC: 0.482706 (Simulation time: 0 hr 40 min 57 sec) 
Heartbeat CPU 0 instructions: 87000001 cycles: 165457624 heartbeat IPC: 0.55406 cumulative IPC: 0.483515 (Simulation time: 0 hr 41 min 20 sec) 
Heartbeat CPU 0 instructions: 88000000 cycles: 167277162 heartbeat IPC: 0.54959 cumulative IPC: 0.484261 (Simulation time: 0 hr 41 min 41 sec) 
Heartbeat CPU 0 instructions: 89000001 cycles: 169128951 heartbeat IPC: 0.540019 cumulative IPC: 0.484895 (Simulation time: 0 hr 42 min 2 sec) 
Heartbeat CPU 0 instructions: 90000002 cycles: 170943376 heartbeat IPC: 0.551139 cumulative IPC: 0.485625 (Simulation time: 0 hr 42 min 24 sec) 
Heartbeat CPU 0 instructions: 91000000 cycles: 172783913 heartbeat IPC: 0.543319 cumulative IPC: 0.486262 (Simulation time: 0 hr 42 min 44 sec) 
Heartbeat CPU 0 instructions: 92000000 cycles: 174575091 heartbeat IPC: 0.558292 cumulative IPC: 0.487028 (Simulation time: 0 hr 43 min 4 sec) 
Heartbeat CPU 0 instructions: 93000001 cycles: 176435813 heartbeat IPC: 0.537426 cumulative IPC: 0.487579 (Simulation time: 0 hr 43 min 22 sec) 
Heartbeat CPU 0 instructions: 94000000 cycles: 178223649 heartbeat IPC: 0.559335 cumulative IPC: 0.488325 (Simulation time: 0 hr 43 min 40 sec) 
Heartbeat CPU 0 instructions: 95000003 cycles: 180017909 heartbeat IPC: 0.557334 cumulative IPC: 0.489037 (Simulation time: 0 hr 43 min 58 sec) 
Heartbeat CPU 0 instructions: 96000000 cycles: 181867912 heartbeat IPC: 0.540538 cumulative IPC: 0.48958 (Simulation time: 0 hr 44 min 15 sec) 
Heartbeat CPU 0 instructions: 97000001 cycles: 183660876 heartbeat IPC: 0.557736 cumulative IPC: 0.490268 (Simulation time: 0 hr 44 min 31 sec) 
Heartbeat CPU 0 instructions: 98000002 cycles: 185519551 heartbeat IPC: 0.538018 cumulative IPC: 0.490763 (Simulation time: 0 hr 44 min 47 sec) 
Heartbeat CPU 0 instructions: 99000000 cycles: 187333868 heartbeat IPC: 0.55117 cumulative IPC: 0.491369 (Simulation time: 0 hr 45 min 3 sec) 
Heartbeat CPU 0 instructions: 100000000 cycles: 189213607 heartbeat IPC: 0.531989 cumulative IPC: 0.491786 (Simulation time: 0 hr 45 min 18 sec) 
Heartbeat CPU 0 instructions: 101000001 cycles: 191047744 heartbeat IPC: 0.545216 cumulative IPC: 0.492316 (Simulation time: 0 hr 45 min 33 sec) 
Heartbeat CPU 0 instructions: 102000001 cycles: 192840158 heartbeat IPC: 0.557907 cumulative IPC: 0.492946 (Simulation time: 0 hr 45 min 46 sec) 
Heartbeat CPU 0 instructions: 103000002 cycles: 194697520 heartbeat IPC: 0.538399 cumulative IPC: 0.493394 (Simulation time: 0 hr 45 min 59 sec) 
Heartbeat CPU 0 instructions: 104000000 cycles: 196484139 heartbeat IPC: 0.559715 cumulative IPC: 0.494016 (Simulation time: 0 hr 46 min 12 sec) 
Heartbeat CPU 0 instructions: 105000001 cycles: 198341370 heartbeat IPC: 0.538437 cumulative IPC: 0.494446 (Simulation time: 0 hr 46 min 23 sec) 
Heartbeat CPU 0 instructions: 106000000 cycles: 200145213 heartbeat IPC: 0.554371 cumulative IPC: 0.495003 (Simulation time: 0 hr 46 min 34 sec) 
Heartbeat CPU 0 instructions: 107000000 cycles: 201965221 heartbeat IPC: 0.549448 cumulative IPC: 0.495509 (Simulation time: 0 hr 46 min 45 sec) 
Heartbeat CPU 0 instructions: 108000000 cycles: 203776980 heartbeat IPC: 0.55195 cumulative IPC: 0.496027 (Simulation time: 0 hr 46 min 55 sec) 
Heartbeat CPU 0 instructions: 109000002 cycles: 205547943 heartbeat IPC: 0.564666 cumulative IPC: 0.496637 (Simulation time: 0 hr 47 min 4 sec) 
Heartbeat CPU 0 instructions: 110000001 cycles: 207384221 heartbeat IPC: 0.544579 cumulative IPC: 0.497074 (Simulation time: 0 hr 47 min 14 sec) 
Finished CPU 0 instructions: 100000000 cycles: 201177144 cummulative IPC: 0.497074 (Simulation time: 0 hr 47 min 14 sec) 

ChampSim completed all CPUs

Region of Interest Statistics

CPU 0 cummulative IPC: 0.497074 instructions: 100000000 cycles: 201177144
LLC TOTAL     ACCESS:    3679358  HIT:    1465126  MISS:    2214232
LLC LOAD      ACCESS:    2465980  HIT:     861850  MISS:    1604130
LLC RFO       ACCESS:     467657  HIT:     173229  MISS:     294428
LLC PREFETCH  ACCESS:          0  HIT:          0  MISS:          0
LLC WRITEBACK ACCESS:     745721  HIT:     430047  MISS:     315674
