
*** ChampSim Multicore Out-of-Order Simulator ***

Warmup Instructions: 10000000
Simulation Instructions: 100000000
Configuration: 1
Number of CPUs: 1
LLC sets: 2048
LLC ways: 16
Off-chip DRAM Channels: 1 Width: 64-bit Data Rate: 1600 MT/s

CPU 0 runs /datasets/cs240c-wi22-a00-public/data/Assignment2-gz/leslie3d_94B.trace.gz
Heartbeat CPU 0 instructions: 1000003 cycles: 592147 heartbeat IPC: 1.68877 cumulative IPC: 1.68877 (Simulation time: 0 hr 0 min 27 sec) 
Heartbeat CPU 0 instructions: 2000002 cycles: 1206641 heartbeat IPC: 1.62735 cumulative IPC: 1.6575 (Simulation time: 0 hr 0 min 52 sec) 
Heartbeat CPU 0 instructions: 3000002 cycles: 1854530 heartbeat IPC: 1.54347 cumulative IPC: 1.61766 (Simulation time: 0 hr 1 min 19 sec) 
Heartbeat CPU 0 instructions: 4000000 cycles: 2502060 heartbeat IPC: 1.54433 cumulative IPC: 1.59868 (Simulation time: 0 hr 1 min 47 sec) 
Heartbeat CPU 0 instructions: 5000002 cycles: 3062650 heartbeat IPC: 1.78384 cumulative IPC: 1.63257 (Simulation time: 0 hr 2 min 15 sec) 
Heartbeat CPU 0 instructions: 6000002 cycles: 3709758 heartbeat IPC: 1.54534 cumulative IPC: 1.61736 (Simulation time: 0 hr 2 min 41 sec) 
Heartbeat CPU 0 instructions: 7000000 cycles: 4356815 heartbeat IPC: 1.54546 cumulative IPC: 1.60668 (Simulation time: 0 hr 3 min 5 sec) 
Heartbeat CPU 0 instructions: 8000000 cycles: 4917141 heartbeat IPC: 1.78468 cumulative IPC: 1.62696 (Simulation time: 0 hr 3 min 30 sec) 
Heartbeat CPU 0 instructions: 9000000 cycles: 5564752 heartbeat IPC: 1.54414 cumulative IPC: 1.61732 (Simulation time: 0 hr 3 min 54 sec) 
Heartbeat CPU 0 instructions: 10000001 cycles: 6212726 heartbeat IPC: 1.54327 cumulative IPC: 1.6096 (Simulation time: 0 hr 4 min 20 sec) 

Warmup complete CPU 0 instructions: 10000001 cycles: 6212726 (Simulation time: 0 hr 4 min 20 sec) 

Heartbeat CPU 0 instructions: 11000000 cycles: 8114726 heartbeat IPC: 0.525762 cumulative IPC: 0.525762 (Simulation time: 0 hr 4 min 48 sec) 
Heartbeat CPU 0 instructions: 12000000 cycles: 10341959 heartbeat IPC: 0.448988 cumulative IPC: 0.484351 (Simulation time: 0 hr 5 min 15 sec) 
Heartbeat CPU 0 instructions: 13000000 cycles: 12586718 heartbeat IPC: 0.445482 cumulative IPC: 0.470663 (Simulation time: 0 hr 5 min 44 sec) 
Heartbeat CPU 0 instructions: 14000000 cycles: 14886931 heartbeat IPC: 0.434742 cumulative IPC: 0.461137 (Simulation time: 0 hr 6 min 13 sec) 
Heartbeat CPU 0 instructions: 15000001 cycles: 16979518 heartbeat IPC: 0.477878 cumulative IPC: 0.464391 (Simulation time: 0 hr 6 min 48 sec) 
Heartbeat CPU 0 instructions: 16000000 cycles: 19343480 heartbeat IPC: 0.423018 cumulative IPC: 0.456942 (Simulation time: 0 hr 7 min 18 sec) 
Heartbeat CPU 0 instructions: 17000001 cycles: 21480730 heartbeat IPC: 0.467891 cumulative IPC: 0.458475 (Simulation time: 0 hr 7 min 50 sec) 
Heartbeat CPU 0 instructions: 18000002 cycles: 23706708 heartbeat IPC: 0.449241 cumulative IPC: 0.4573 (Simulation time: 0 hr 8 min 20 sec) 
Heartbeat CPU 0 instructions: 19000001 cycles: 25814901 heartbeat IPC: 0.474339 cumulative IPC: 0.459133 (Simulation time: 0 hr 8 min 48 sec) 
Heartbeat CPU 0 instructions: 20000000 cycles: 28073313 heartbeat IPC: 0.442789 cumulative IPC: 0.457444 (Simulation time: 0 hr 9 min 20 sec) 
Heartbeat CPU 0 instructions: 21000002 cycles: 30172482 heartbeat IPC: 0.47638 cumulative IPC: 0.459103 (Simulation time: 0 hr 9 min 50 sec) 
Heartbeat CPU 0 instructions: 22000002 cycles: 32895409 heartbeat IPC: 0.367252 cumulative IPC: 0.44973 (Simulation time: 0 hr 10 min 22 sec) 
Heartbeat CPU 0 instructions: 23000000 cycles: 35739931 heartbeat IPC: 0.351552 cumulative IPC: 0.440272 (Simulation time: 0 hr 10 min 53 sec) 
Heartbeat CPU 0 instructions: 24000000 cycles: 38615299 heartbeat IPC: 0.347782 cumulative IPC: 0.432064 (Simulation time: 0 hr 11 min 24 sec) 
Heartbeat CPU 0 instructions: 25000000 cycles: 41807684 heartbeat IPC: 0.313245 cumulative IPC: 0.421408 (Simulation time: 0 hr 11 min 56 sec) 
Heartbeat CPU 0 instructions: 26000002 cycles: 45825448 heartbeat IPC: 0.248895 cumulative IPC: 0.403911 (Simulation time: 0 hr 12 min 35 sec) 
Heartbeat CPU 0 instructions: 27000001 cycles: 49903365 heartbeat IPC: 0.245223 cumulative IPC: 0.389099 (Simulation time: 0 hr 13 min 16 sec) 
Heartbeat CPU 0 instructions: 28000000 cycles: 53986759 heartbeat IPC: 0.244894 cumulative IPC: 0.376774 (Simulation time: 0 hr 13 min 54 sec) 
Heartbeat CPU 0 instructions: 29000000 cycles: 57964011 heartbeat IPC: 0.25143 cumulative IPC: 0.367141 (Simulation time: 0 hr 14 min 31 sec) 
Heartbeat CPU 0 instructions: 30000002 cycles: 59955674 heartbeat IPC: 0.502094 cumulative IPC: 0.372142 (Simulation time: 0 hr 14 min 59 sec) 
Heartbeat CPU 0 instructions: 31000002 cycles: 61746996 heartbeat IPC: 0.558247 cumulative IPC: 0.378145 (Simulation time: 0 hr 15 min 30 sec) 
Heartbeat CPU 0 instructions: 32000000 cycles: 63582850 heartbeat IPC: 0.544705 cumulative IPC: 0.383475 (Simulation time: 0 hr 15 min 57 sec) 
Heartbeat CPU 0 instructions: 33000001 cycles: 65386888 heartbeat IPC: 0.554313 cumulative IPC: 0.388683 (Simulation time: 0 hr 16 min 26 sec) 
Heartbeat CPU 0 instructions: 34000003 cycles: 67235050 heartbeat IPC: 0.541079 cumulative IPC: 0.393299 (Simulation time: 0 hr 16 min 54 sec) 
Heartbeat CPU 0 instructions: 35000000 cycles: 69002782 heartbeat IPC: 0.565695 cumulative IPC: 0.398152 (Simulation time: 0 hr 17 min 21 sec) 
Heartbeat CPU 0 instructions: 36000000 cycles: 70866897 heartbeat IPC: 0.536448 cumulative IPC: 0.40214 (Simulation time: 0 hr 17 min 50 sec) 
Heartbeat CPU 0 instructions: 37000003 cycles: 72694761 heartbeat IPC: 0.547088 cumulative IPC: 0.406125 (Simulation time: 0 hr 18 min 19 sec) 
Heartbeat CPU 0 instructions: 38000000 cycles: 74503644 heartbeat IPC: 0.552826 cumulative IPC: 0.410011 (Simulation time: 0 hr 18 min 46 sec) 
Heartbeat CPU 0 instructions: 39000001 cycles: 76325840 heartbeat IPC: 0.548789 cumulative IPC: 0.413617 (Simulation time: 0 hr 19 min 14 sec) 
Heartbeat CPU 0 instructions: 40000000 cycles: 78095845 heartbeat IPC: 0.56497 cumulative IPC: 0.417344 (Simulation time: 0 hr 19 min 42 sec) 
Heartbeat CPU 0 instructions: 41000002 cycles: 79970353 heartbeat IPC: 0.533474 cumulative IPC: 0.420296 (Simulation time: 0 hr 20 min 13 sec) 
Heartbeat CPU 0 instructions: 42000002 cycles: 81794270 heartbeat IPC: 0.548271 cumulative IPC: 0.423384 (Simulation time: 0 hr 20 min 41 sec) 
Heartbeat CPU 0 instructions: 43000002 cycles: 83649506 heartbeat IPC: 0.539015 cumulative IPC: 0.426154 (Simulation time: 0 hr 21 min 10 sec) 
Heartbeat CPU 0 instructions: 44000000 cycles: 85450231 heartbeat IPC: 0.555331 cumulative IPC: 0.42909 (Simulation time: 0 hr 21 min 38 sec) 
Heartbeat CPU 0 instructions: 45000001 cycles: 87297971 heartbeat IPC: 0.541202 cumulative IPC: 0.431644 (Simulation time: 0 hr 22 min 5 sec) 
Heartbeat CPU 0 instructions: 46000001 cycles: 89187644 heartbeat IPC: 0.529192 cumulative IPC: 0.433866 (Simulation time: 0 hr 22 min 35 sec) 
Heartbeat CPU 0 instructions: 47000000 cycles: 90988636 heartbeat IPC: 0.555249 cumulative IPC: 0.436445 (Simulation time: 0 hr 23 min 3 sec) 
Heartbeat CPU 0 instructions: 48000000 cycles: 92861988 heartbeat IPC: 0.533803 cumulative IPC: 0.43855 (Simulation time: 0 hr 23 min 30 sec) 
Heartbeat CPU 0 instructions: 49000001 cycles: 94687997 heartbeat IPC: 0.547643 cumulative IPC: 0.440801 (Simulation time: 0 hr 23 min 58 sec) 
Heartbeat CPU 0 instructions: 50000001 cycles: 96540621 heartbeat IPC: 0.539775 cumulative IPC: 0.442831 (Simulation time: 0 hr 24 min 26 sec) 
Heartbeat CPU 0 instructions: 51000003 cycles: 98355237 heartbeat IPC: 0.551082 cumulative IPC: 0.444963 (Simulation time: 0 hr 24 min 53 sec) 
Heartbeat CPU 0 instructions: 52000000 cycles: 100151089 heartbeat IPC: 0.556837 cumulative IPC: 0.447102 (Simulation time: 0 hr 25 min 28 sec) 
Heartbeat CPU 0 instructions: 53000002 cycles: 102016117 heartbeat IPC: 0.536186 cumulative IPC: 0.448836 (Simulation time: 0 hr 25 min 59 sec) 
Heartbeat CPU 0 instructions: 54000001 cycles: 103814261 heartbeat IPC: 0.556128 cumulative IPC: 0.450813 (Simulation time: 0 hr 26 min 26 sec) 
Heartbeat CPU 0 instructions: 55000000 cycles: 105664033 heartbeat IPC: 0.540607 cumulative IPC: 0.452483 (Simulation time: 0 hr 26 min 52 sec) 
Heartbeat CPU 0 instructions: 56000000 cycles: 107489255 heartbeat IPC: 0.547879 cumulative IPC: 0.454202 (Simulation time: 0 hr 27 min 19 sec) 
Heartbeat CPU 0 instructions: 57000000 cycles: 109330980 heartbeat IPC: 0.542969 cumulative IPC: 0.455787 (Simulation time: 0 hr 27 min 46 sec) 
Heartbeat CPU 0 instructions: 58000001 cycles: 111116642 heartbeat IPC: 0.560017 cumulative IPC: 0.457562 (Simulation time: 0 hr 28 min 13 sec) 
Heartbeat CPU 0 instructions: 59000003 cycles: 112883198 heartbeat IPC: 0.566074 cumulative IPC: 0.459359 (Simulation time: 0 hr 28 min 40 sec) 
Heartbeat CPU 0 instructions: 60000000 cycles: 114705169 heartbeat IPC: 0.548855 cumulative IPC: 0.460862 (Simulation time: 0 hr 29 min 6 sec) 
Heartbeat CPU 0 instructions: 61000001 cycles: 116494668 heartbeat IPC: 0.558816 cumulative IPC: 0.462451 (Simulation time: 0 hr 29 min 32 sec) 
Heartbeat CPU 0 instructions: 62000002 cycles: 118297965 heartbeat IPC: 0.55454 cumulative IPC: 0.463933 (Simulation time: 0 hr 30 min 0 sec) 
Heartbeat CPU 0 instructions: 63000001 cycles: 120090643 heartbeat IPC: 0.557824 cumulative IPC: 0.465411 (Simulation time: 0 hr 30 min 29 sec) 
Heartbeat CPU 0 instructions: 64000000 cycles: 121927496 heartbeat IPC: 0.544409 cumulative IPC: 0.466665 (Simulation time: 0 hr 30 min 58 sec) 
Heartbeat CPU 0 instructions: 65000000 cycles: 123760527 heartbeat IPC: 0.545545 cumulative IPC: 0.467895 (Simulation time: 0 hr 31 min 30 sec) 
Heartbeat CPU 0 instructions: 66000000 cycles: 125589981 heartbeat IPC: 0.546611 cumulative IPC: 0.469101 (Simulation time: 0 hr 32 min 1 sec) 
Heartbeat CPU 0 instructions: 67000002 cycles: 127441164 heartbeat IPC: 0.540196 cumulative IPC: 0.470187 (Simulation time: 0 hr 32 min 31 sec) 
Heartbeat CPU 0 instructions: 68000000 cycles: 129259538 heartbeat IPC: 0.549941 cumulative IPC: 0.471365 (Simulation time: 0 hr 32 min 59 sec) 
Heartbeat CPU 0 instructions: 69000000 cycles: 131075173 heartbeat IPC: 0.550771 cumulative IPC: 0.47252 (Simulation time: 0 hr 33 min 27 sec) 
Heartbeat CPU 0 instructions: 70000001 cycles: 132881422 heartbeat IPC: 0.553634 cumulative IPC: 0.473677 (Simulation time: 0 hr 33 min 59 sec) 
Heartbeat CPU 0 instructions: 71000002 cycles: 134753923 heartbeat IPC: 0.534046 cumulative IPC: 0.474556 (Simulation time: 0 hr 34 min 27 sec) 
Heartbeat CPU 0 instructions: 72000000 cycles: 136521709 heartbeat IPC: 0.565678 cumulative IPC: 0.475792 (Simulation time: 0 hr 34 min 56 sec) 
Heartbeat CPU 0 instructions: 73000002 cycles: 138322247 heartbeat IPC: 0.555391 cumulative IPC: 0.476877 (Simulation time: 0 hr 35 min 23 sec) 
Heartbeat CPU 0 instructions: 74000000 cycles: 140127874 heartbeat IPC: 0.553823 cumulative IPC: 0.477915 (Simulation time: 0 hr 35 min 50 sec) 
Heartbeat CPU 0 instructions: 75000000 cycles: 141929117 heartbeat IPC: 0.555172 cumulative IPC: 0.47894 (Simulation time: 0 hr 36 min 17 sec) 
Heartbeat CPU 0 instructions: 76000000 cycles: 143764707 heartbeat IPC: 0.544784 cumulative IPC: 0.479819 (Simulation time: 0 hr 36 min 42 sec) 
Heartbeat CPU 0 instructions: 77000000 cycles: 145549405 heartbeat IPC: 0.560319 cumulative IPC: 0.48085 (Simulation time: 0 hr 37 min 8 sec) 
Heartbeat CPU 0 instructions: 78000003 cycles: 147432653 heartbeat IPC: 0.530999 cumulative IPC: 0.481518 (Simulation time: 0 hr 37 min 36 sec) 
Heartbeat CPU 0 instructions: 79000000 cycles: 149412901 heartbeat IPC: 0.504986 cumulative IPC: 0.481843 (Simulation time: 0 hr 38 min 4 sec) 
Heartbeat CPU 0 instructions: 80000000 cycles: 151697849 heartbeat IPC: 0.437647 cumulative IPC: 0.481149 (Simulation time: 0 hr 38 min 28 sec) 
Heartbeat CPU 0 instructions: 81000002 cycles: 153947256 heartbeat IPC: 0.444562 cumulative IPC: 0.480592 (Simulation time: 0 hr 38 min 50 sec) 
Heartbeat CPU 0 instructions: 82000003 cycles: 156273021 heartbeat IPC: 0.429966 cumulative IPC: 0.479807 (Simulation time: 0 hr 39 min 14 sec) 
Heartbeat CPU 0 instructions: 83000003 cycles: 158627304 heartbeat IPC: 0.424758 cumulative IPC: 0.478957 (Simulation time: 0 hr 39 min 38 sec) 
Heartbeat CPU 0 instructions: 84000000 cycles: 160884769 heartbeat IPC: 0.442973 cumulative IPC: 0.478432 (Simulation time: 0 hr 40 min 1 sec) 
Heartbeat CPU 0 instructions: 85000000 cycles: 163216711 heartbeat IPC: 0.428827 cumulative IPC: 0.477695 (Simulation time: 0 hr 40 min 24 sec) 
Heartbeat CPU 0 instructions: 86000002 cycles: 165451841 heartbeat IPC: 0.447402 cumulative IPC: 0.47727 (Simulation time: 0 hr 40 min 46 sec) 
Heartbeat CPU 0 instructions: 87000000 cycles: 167727660 heartbeat IPC: 0.439401 cumulative IPC: 0.476736 (Simulation time: 0 hr 41 min 7 sec) 
Heartbeat CPU 0 instructions: 88000000 cycles: 170034028 heartbeat IPC: 0.433582 cumulative IPC: 0.476129 (Simulation time: 0 hr 41 min 29 sec) 
Heartbeat CPU 0 instructions: 89000002 cycles: 172289341 heartbeat IPC: 0.443398 cumulative IPC: 0.475684 (Simulation time: 0 hr 41 min 50 sec) 
Heartbeat CPU 0 instructions: 90000001 cycles: 174549365 heartbeat IPC: 0.442473 cumulative IPC: 0.475238 (Simulation time: 0 hr 42 min 11 sec) 
Heartbeat CPU 0 instructions: 91000003 cycles: 176811731 heartbeat IPC: 0.442016 cumulative IPC: 0.474798 (Simulation time: 0 hr 42 min 32 sec) 
Heartbeat CPU 0 instructions: 92000000 cycles: 179093796 heartbeat IPC: 0.438198 cumulative IPC: 0.474315 (Simulation time: 0 hr 42 min 51 sec) 
Heartbeat CPU 0 instructions: 93000001 cycles: 181435362 heartbeat IPC: 0.427065 cumulative IPC: 0.473683 (Simulation time: 0 hr 43 min 11 sec) 
Heartbeat CPU 0 instructions: 94000003 cycles: 183730944 heartbeat IPC: 0.43562 cumulative IPC: 0.473191 (Simulation time: 0 hr 43 min 29 sec) 
Heartbeat CPU 0 instructions: 95000002 cycles: 186095896 heartbeat IPC: 0.422841 cumulative IPC: 0.472529 (Simulation time: 0 hr 43 min 47 sec) 
Heartbeat CPU 0 instructions: 96000000 cycles: 188358300 heartbeat IPC: 0.442007 cumulative IPC: 0.47215 (Simulation time: 0 hr 44 min 3 sec) 
Heartbeat CPU 0 instructions: 97000003 cycles: 191123162 heartbeat IPC: 0.361683 cumulative IPC: 0.470498 (Simulation time: 0 hr 44 min 22 sec) 
Heartbeat CPU 0 instructions: 98000002 cycles: 197184620 heartbeat IPC: 0.164977 cumulative IPC: 0.460801 (Simulation time: 0 hr 44 min 54 sec) 
Heartbeat CPU 0 instructions: 99000000 cycles: 200924656 heartbeat IPC: 0.267377 cumulative IPC: 0.457085 (Simulation time: 0 hr 45 min 21 sec) 
Heartbeat CPU 0 instructions: 100000000 cycles: 203384082 heartbeat IPC: 0.406599 cumulative IPC: 0.456456 (Simulation time: 0 hr 45 min 36 sec) 
Heartbeat CPU 0 instructions: 101000002 cycles: 205523439 heartbeat IPC: 0.467431 cumulative IPC: 0.456574 (Simulation time: 0 hr 45 min 49 sec) 
Heartbeat CPU 0 instructions: 102000003 cycles: 207446030 heartbeat IPC: 0.520132 cumulative IPC: 0.457181 (Simulation time: 0 hr 46 min 1 sec) 
Heartbeat CPU 0 instructions: 103000002 cycles: 209357484 heartbeat IPC: 0.523161 cumulative IPC: 0.457802 (Simulation time: 0 hr 46 min 13 sec) 
Heartbeat CPU 0 instructions: 104000000 cycles: 211438706 heartbeat IPC: 0.480486 cumulative IPC: 0.458032 (Simulation time: 0 hr 46 min 23 sec) 
Heartbeat CPU 0 instructions: 105000001 cycles: 213573720 heartbeat IPC: 0.468381 cumulative IPC: 0.458138 (Simulation time: 0 hr 46 min 33 sec) 
Heartbeat CPU 0 instructions: 106000001 cycles: 215695486 heartbeat IPC: 0.471306 cumulative IPC: 0.458272 (Simulation time: 0 hr 46 min 43 sec) 
Heartbeat CPU 0 instructions: 107000000 cycles: 217805128 heartbeat IPC: 0.474014 cumulative IPC: 0.458429 (Simulation time: 0 hr 46 min 52 sec) 
Heartbeat CPU 0 instructions: 108000000 cycles: 219924007 heartbeat IPC: 0.471948 cumulative IPC: 0.458563 (Simulation time: 0 hr 47 min 1 sec) 
Heartbeat CPU 0 instructions: 109000001 cycles: 221925981 heartbeat IPC: 0.499507 cumulative IPC: 0.458943 (Simulation time: 0 hr 47 min 9 sec) 
Heartbeat CPU 0 instructions: 110000001 cycles: 223903461 heartbeat IPC: 0.505694 cumulative IPC: 0.459367 (Simulation time: 0 hr 47 min 18 sec) 
Finished CPU 0 instructions: 100000000 cycles: 217690735 cummulative IPC: 0.459367 (Simulation time: 0 hr 47 min 18 sec) 

ChampSim completed all CPUs

Region of Interest Statistics

CPU 0 cummulative IPC: 0.459367 instructions: 100000000 cycles: 217690735
LLC TOTAL     ACCESS:    4478050  HIT:    1460280  MISS:    3017770
LLC LOAD      ACCESS:    2621084  HIT:     679131  MISS:    1941953
LLC RFO       ACCESS:     760548  HIT:      90971  MISS:     669577
LLC PREFETCH  ACCESS:          0  HIT:          0  MISS:          0
LLC WRITEBACK ACCESS:    1096418  HIT:     690178  MISS:     406240
