
*** ChampSim Multicore Out-of-Order Simulator ***

Warmup Instructions: 10000000
Simulation Instructions: 100000000
Configuration: 1
Number of CPUs: 1
LLC sets: 2048
LLC ways: 16
Off-chip DRAM Channels: 1 Width: 64-bit Data Rate: 1600 MT/s

CPU 0 runs /datasets/cs240c-wi22-a00-public/data/Assignment2-gz/zeusmp_100B.trace.gz
Heartbeat CPU 0 instructions: 1000002 cycles: 464468 heartbeat IPC: 2.15301 cumulative IPC: 2.15301 (Simulation time: 0 hr 0 min 22 sec) 
Heartbeat CPU 0 instructions: 2000001 cycles: 928928 heartbeat IPC: 2.15304 cumulative IPC: 2.15302 (Simulation time: 0 hr 0 min 41 sec) 
Heartbeat CPU 0 instructions: 3000003 cycles: 1393617 heartbeat IPC: 2.15198 cumulative IPC: 2.15267 (Simulation time: 0 hr 1 min 4 sec) 
Heartbeat CPU 0 instructions: 4000000 cycles: 1858062 heartbeat IPC: 2.1531 cumulative IPC: 2.15278 (Simulation time: 0 hr 1 min 27 sec) 
Heartbeat CPU 0 instructions: 5000003 cycles: 2322491 heartbeat IPC: 2.15319 cumulative IPC: 2.15286 (Simulation time: 0 hr 1 min 49 sec) 
Heartbeat CPU 0 instructions: 6000001 cycles: 2787246 heartbeat IPC: 2.15167 cumulative IPC: 2.15266 (Simulation time: 0 hr 2 min 13 sec) 
Heartbeat CPU 0 instructions: 7000001 cycles: 3251588 heartbeat IPC: 2.15358 cumulative IPC: 2.15279 (Simulation time: 0 hr 2 min 35 sec) 
Heartbeat CPU 0 instructions: 8000000 cycles: 3716295 heartbeat IPC: 2.15189 cumulative IPC: 2.15268 (Simulation time: 0 hr 3 min 0 sec) 
Heartbeat CPU 0 instructions: 9000003 cycles: 4180636 heartbeat IPC: 2.1536 cumulative IPC: 2.15278 (Simulation time: 0 hr 3 min 24 sec) 
Heartbeat CPU 0 instructions: 10000001 cycles: 4645606 heartbeat IPC: 2.15067 cumulative IPC: 2.15257 (Simulation time: 0 hr 3 min 45 sec) 

Warmup complete CPU 0 instructions: 10000001 cycles: 4645606 (Simulation time: 0 hr 3 min 45 sec) 

Heartbeat CPU 0 instructions: 11000000 cycles: 5568235 heartbeat IPC: 1.08386 cumulative IPC: 1.08386 (Simulation time: 0 hr 4 min 9 sec) 
Heartbeat CPU 0 instructions: 12000000 cycles: 6493696 heartbeat IPC: 1.08054 cumulative IPC: 1.0822 (Simulation time: 0 hr 4 min 39 sec) 
Heartbeat CPU 0 instructions: 13000001 cycles: 7436788 heartbeat IPC: 1.06034 cumulative IPC: 1.07481 (Simulation time: 0 hr 5 min 5 sec) 
Heartbeat CPU 0 instructions: 14000003 cycles: 8360184 heartbeat IPC: 1.08296 cumulative IPC: 1.07684 (Simulation time: 0 hr 5 min 33 sec) 
Heartbeat CPU 0 instructions: 15000002 cycles: 9285651 heartbeat IPC: 1.08053 cumulative IPC: 1.07758 (Simulation time: 0 hr 5 min 54 sec) 
Heartbeat CPU 0 instructions: 16000000 cycles: 10210337 heartbeat IPC: 1.08145 cumulative IPC: 1.07822 (Simulation time: 0 hr 6 min 18 sec) 
Heartbeat CPU 0 instructions: 17000003 cycles: 11174722 heartbeat IPC: 1.03693 cumulative IPC: 1.07212 (Simulation time: 0 hr 6 min 46 sec) 
Heartbeat CPU 0 instructions: 18000000 cycles: 12062736 heartbeat IPC: 1.1261 cumulative IPC: 1.07858 (Simulation time: 0 hr 7 min 7 sec) 
Heartbeat CPU 0 instructions: 19000002 cycles: 12947905 heartbeat IPC: 1.12973 cumulative IPC: 1.08404 (Simulation time: 0 hr 7 min 30 sec) 
Heartbeat CPU 0 instructions: 20000000 cycles: 13812657 heartbeat IPC: 1.1564 cumulative IPC: 1.09086 (Simulation time: 0 hr 7 min 58 sec) 
Heartbeat CPU 0 instructions: 21000001 cycles: 14688620 heartbeat IPC: 1.1416 cumulative IPC: 1.09529 (Simulation time: 0 hr 8 min 21 sec) 
Heartbeat CPU 0 instructions: 22000001 cycles: 15556837 heartbeat IPC: 1.15179 cumulative IPC: 1.09978 (Simulation time: 0 hr 8 min 44 sec) 
Heartbeat CPU 0 instructions: 23000002 cycles: 16442701 heartbeat IPC: 1.12884 cumulative IPC: 1.10197 (Simulation time: 0 hr 9 min 7 sec) 
Heartbeat CPU 0 instructions: 24000000 cycles: 17307359 heartbeat IPC: 1.15652 cumulative IPC: 1.10569 (Simulation time: 0 hr 9 min 32 sec) 
Heartbeat CPU 0 instructions: 25000002 cycles: 18185090 heartbeat IPC: 1.1393 cumulative IPC: 1.10787 (Simulation time: 0 hr 9 min 58 sec) 
Heartbeat CPU 0 instructions: 26000001 cycles: 19052181 heartbeat IPC: 1.15328 cumulative IPC: 1.1106 (Simulation time: 0 hr 10 min 23 sec) 
Heartbeat CPU 0 instructions: 27000000 cycles: 19936130 heartbeat IPC: 1.13129 cumulative IPC: 1.1118 (Simulation time: 0 hr 10 min 46 sec) 
Heartbeat CPU 0 instructions: 28000000 cycles: 20806549 heartbeat IPC: 1.14887 cumulative IPC: 1.1138 (Simulation time: 0 hr 11 min 11 sec) 
Heartbeat CPU 0 instructions: 29000000 cycles: 21671773 heartbeat IPC: 1.15577 cumulative IPC: 1.11593 (Simulation time: 0 hr 11 min 36 sec) 
Heartbeat CPU 0 instructions: 30000003 cycles: 22551461 heartbeat IPC: 1.13677 cumulative IPC: 1.11695 (Simulation time: 0 hr 12 min 3 sec) 
Heartbeat CPU 0 instructions: 31000000 cycles: 23417408 heartbeat IPC: 1.1548 cumulative IPC: 1.1187 (Simulation time: 0 hr 12 min 27 sec) 
Heartbeat CPU 0 instructions: 32000000 cycles: 24299286 heartbeat IPC: 1.13394 cumulative IPC: 1.11938 (Simulation time: 0 hr 12 min 52 sec) 
Heartbeat CPU 0 instructions: 33000002 cycles: 25163268 heartbeat IPC: 1.15743 cumulative IPC: 1.12099 (Simulation time: 0 hr 13 min 18 sec) 
Heartbeat CPU 0 instructions: 34000002 cycles: 26041242 heartbeat IPC: 1.13899 cumulative IPC: 1.12172 (Simulation time: 0 hr 13 min 43 sec) 
Heartbeat CPU 0 instructions: 35000003 cycles: 26908024 heartbeat IPC: 1.15369 cumulative IPC: 1.12297 (Simulation time: 0 hr 14 min 10 sec) 
Heartbeat CPU 0 instructions: 36000000 cycles: 27786682 heartbeat IPC: 1.1381 cumulative IPC: 1.12354 (Simulation time: 0 hr 14 min 33 sec) 
Heartbeat CPU 0 instructions: 37000001 cycles: 28657408 heartbeat IPC: 1.14847 cumulative IPC: 1.12445 (Simulation time: 0 hr 14 min 59 sec) 
Heartbeat CPU 0 instructions: 38000003 cycles: 29533106 heartbeat IPC: 1.14195 cumulative IPC: 1.12506 (Simulation time: 0 hr 15 min 23 sec) 
Heartbeat CPU 0 instructions: 39000001 cycles: 30400187 heartbeat IPC: 1.15329 cumulative IPC: 1.12601 (Simulation time: 0 hr 15 min 46 sec) 
Heartbeat CPU 0 instructions: 40000000 cycles: 31277505 heartbeat IPC: 1.13984 cumulative IPC: 1.12647 (Simulation time: 0 hr 16 min 10 sec) 
Heartbeat CPU 0 instructions: 41000002 cycles: 32148053 heartbeat IPC: 1.1487 cumulative IPC: 1.12717 (Simulation time: 0 hr 16 min 36 sec) 
Heartbeat CPU 0 instructions: 42000000 cycles: 33013638 heartbeat IPC: 1.15529 cumulative IPC: 1.12803 (Simulation time: 0 hr 16 min 58 sec) 
Heartbeat CPU 0 instructions: 43000003 cycles: 33888649 heartbeat IPC: 1.14285 cumulative IPC: 1.12847 (Simulation time: 0 hr 17 min 25 sec) 
Heartbeat CPU 0 instructions: 44000000 cycles: 34753805 heartbeat IPC: 1.15586 cumulative IPC: 1.12926 (Simulation time: 0 hr 17 min 49 sec) 
Heartbeat CPU 0 instructions: 45000001 cycles: 35629419 heartbeat IPC: 1.14206 cumulative IPC: 1.12962 (Simulation time: 0 hr 18 min 13 sec) 
Heartbeat CPU 0 instructions: 46000002 cycles: 36499967 heartbeat IPC: 1.1487 cumulative IPC: 1.13014 (Simulation time: 0 hr 18 min 40 sec) 
Heartbeat CPU 0 instructions: 47000003 cycles: 37377306 heartbeat IPC: 1.13981 cumulative IPC: 1.1304 (Simulation time: 0 hr 19 min 7 sec) 
Heartbeat CPU 0 instructions: 48000000 cycles: 38241877 heartbeat IPC: 1.15664 cumulative IPC: 1.13108 (Simulation time: 0 hr 19 min 33 sec) 
Heartbeat CPU 0 instructions: 49000001 cycles: 39118266 heartbeat IPC: 1.14105 cumulative IPC: 1.13133 (Simulation time: 0 hr 19 min 56 sec) 
Heartbeat CPU 0 instructions: 50000001 cycles: 39990111 heartbeat IPC: 1.14699 cumulative IPC: 1.13172 (Simulation time: 0 hr 20 min 24 sec) 
Heartbeat CPU 0 instructions: 51000002 cycles: 40867650 heartbeat IPC: 1.13955 cumulative IPC: 1.13191 (Simulation time: 0 hr 20 min 49 sec) 
Heartbeat CPU 0 instructions: 52000000 cycles: 41726294 heartbeat IPC: 1.16462 cumulative IPC: 1.13267 (Simulation time: 0 hr 21 min 17 sec) 
Heartbeat CPU 0 instructions: 53000001 cycles: 42596037 heartbeat IPC: 1.14977 cumulative IPC: 1.13306 (Simulation time: 0 hr 21 min 40 sec) 
Heartbeat CPU 0 instructions: 54000003 cycles: 43453785 heartbeat IPC: 1.16585 cumulative IPC: 1.13378 (Simulation time: 0 hr 22 min 9 sec) 
Heartbeat CPU 0 instructions: 55000003 cycles: 44332330 heartbeat IPC: 1.13825 cumulative IPC: 1.13388 (Simulation time: 0 hr 22 min 35 sec) 
Heartbeat CPU 0 instructions: 56000000 cycles: 45202732 heartbeat IPC: 1.14889 cumulative IPC: 1.1342 (Simulation time: 0 hr 22 min 59 sec) 
Heartbeat CPU 0 instructions: 57000003 cycles: 46068827 heartbeat IPC: 1.15461 cumulative IPC: 1.13463 (Simulation time: 0 hr 23 min 23 sec) 
Heartbeat CPU 0 instructions: 58000003 cycles: 46948050 heartbeat IPC: 1.13737 cumulative IPC: 1.13469 (Simulation time: 0 hr 23 min 48 sec) 
Heartbeat CPU 0 instructions: 59000002 cycles: 47821430 heartbeat IPC: 1.14498 cumulative IPC: 1.13489 (Simulation time: 0 hr 24 min 19 sec) 
Heartbeat CPU 0 instructions: 60000000 cycles: 48702398 heartbeat IPC: 1.13511 cumulative IPC: 1.1349 (Simulation time: 0 hr 24 min 46 sec) 
Heartbeat CPU 0 instructions: 61000000 cycles: 49570683 heartbeat IPC: 1.1517 cumulative IPC: 1.13522 (Simulation time: 0 hr 25 min 12 sec) 
Heartbeat CPU 0 instructions: 62000001 cycles: 50450721 heartbeat IPC: 1.13632 cumulative IPC: 1.13524 (Simulation time: 0 hr 25 min 36 sec) 
Heartbeat CPU 0 instructions: 63000001 cycles: 51317279 heartbeat IPC: 1.15399 cumulative IPC: 1.13559 (Simulation time: 0 hr 26 min 5 sec) 
Heartbeat CPU 0 instructions: 64000000 cycles: 52203277 heartbeat IPC: 1.12867 cumulative IPC: 1.13546 (Simulation time: 0 hr 26 min 32 sec) 
Heartbeat CPU 0 instructions: 65000003 cycles: 53071319 heartbeat IPC: 1.15202 cumulative IPC: 1.13576 (Simulation time: 0 hr 26 min 53 sec) 
Heartbeat CPU 0 instructions: 66000002 cycles: 53951032 heartbeat IPC: 1.13673 cumulative IPC: 1.13578 (Simulation time: 0 hr 27 min 17 sec) 
Heartbeat CPU 0 instructions: 67000000 cycles: 54817328 heartbeat IPC: 1.15434 cumulative IPC: 1.1361 (Simulation time: 0 hr 27 min 44 sec) 
Heartbeat CPU 0 instructions: 68000000 cycles: 55699791 heartbeat IPC: 1.13319 cumulative IPC: 1.13605 (Simulation time: 0 hr 28 min 12 sec) 
Heartbeat CPU 0 instructions: 69000000 cycles: 56570242 heartbeat IPC: 1.14883 cumulative IPC: 1.13626 (Simulation time: 0 hr 28 min 40 sec) 
Heartbeat CPU 0 instructions: 70000003 cycles: 57439195 heartbeat IPC: 1.15081 cumulative IPC: 1.1365 (Simulation time: 0 hr 29 min 2 sec) 
Heartbeat CPU 0 instructions: 71000003 cycles: 58318026 heartbeat IPC: 1.13788 cumulative IPC: 1.13652 (Simulation time: 0 hr 29 min 23 sec) 
Heartbeat CPU 0 instructions: 72000000 cycles: 59184946 heartbeat IPC: 1.15351 cumulative IPC: 1.13679 (Simulation time: 0 hr 29 min 45 sec) 
Heartbeat CPU 0 instructions: 73000002 cycles: 60071733 heartbeat IPC: 1.12767 cumulative IPC: 1.13665 (Simulation time: 0 hr 30 min 12 sec) 
Heartbeat CPU 0 instructions: 74000003 cycles: 60940846 heartbeat IPC: 1.1506 cumulative IPC: 1.13686 (Simulation time: 0 hr 30 min 38 sec) 
Heartbeat CPU 0 instructions: 75000003 cycles: 61820684 heartbeat IPC: 1.13657 cumulative IPC: 1.13686 (Simulation time: 0 hr 31 min 0 sec) 
Heartbeat CPU 0 instructions: 76000000 cycles: 62688709 heartbeat IPC: 1.15204 cumulative IPC: 1.13709 (Simulation time: 0 hr 31 min 26 sec) 
Heartbeat CPU 0 instructions: 77000003 cycles: 63574430 heartbeat IPC: 1.12903 cumulative IPC: 1.13696 (Simulation time: 0 hr 31 min 50 sec) 
Heartbeat CPU 0 instructions: 78000001 cycles: 64447981 heartbeat IPC: 1.14475 cumulative IPC: 1.13708 (Simulation time: 0 hr 32 min 14 sec) 
Heartbeat CPU 0 instructions: 79000000 cycles: 65328985 heartbeat IPC: 1.13507 cumulative IPC: 1.13705 (Simulation time: 0 hr 32 min 38 sec) 
Heartbeat CPU 0 instructions: 80000000 cycles: 66194899 heartbeat IPC: 1.15485 cumulative IPC: 1.1373 (Simulation time: 0 hr 33 min 4 sec) 
Heartbeat CPU 0 instructions: 81000003 cycles: 67076603 heartbeat IPC: 1.13417 cumulative IPC: 1.13726 (Simulation time: 0 hr 33 min 27 sec) 
Heartbeat CPU 0 instructions: 82000001 cycles: 67950139 heartbeat IPC: 1.14477 cumulative IPC: 1.13736 (Simulation time: 0 hr 33 min 48 sec) 
Heartbeat CPU 0 instructions: 83000002 cycles: 68815820 heartbeat IPC: 1.15516 cumulative IPC: 1.1376 (Simulation time: 0 hr 34 min 11 sec) 
Heartbeat CPU 0 instructions: 84000000 cycles: 69694247 heartbeat IPC: 1.1384 cumulative IPC: 1.13761 (Simulation time: 0 hr 34 min 36 sec) 
Heartbeat CPU 0 instructions: 85000001 cycles: 70559851 heartbeat IPC: 1.15526 cumulative IPC: 1.13784 (Simulation time: 0 hr 34 min 59 sec) 
Heartbeat CPU 0 instructions: 86000001 cycles: 71441488 heartbeat IPC: 1.13425 cumulative IPC: 1.13779 (Simulation time: 0 hr 35 min 25 sec) 
Heartbeat CPU 0 instructions: 87000001 cycles: 72313542 heartbeat IPC: 1.14672 cumulative IPC: 1.13791 (Simulation time: 0 hr 35 min 50 sec) 
Heartbeat CPU 0 instructions: 88000000 cycles: 73194683 heartbeat IPC: 1.13489 cumulative IPC: 1.13787 (Simulation time: 0 hr 36 min 13 sec) 
Heartbeat CPU 0 instructions: 89000003 cycles: 74060558 heartbeat IPC: 1.1549 cumulative IPC: 1.13808 (Simulation time: 0 hr 36 min 37 sec) 
Heartbeat CPU 0 instructions: 90000001 cycles: 74939985 heartbeat IPC: 1.1371 cumulative IPC: 1.13807 (Simulation time: 0 hr 37 min 1 sec) 
Heartbeat CPU 0 instructions: 91000000 cycles: 75813746 heartbeat IPC: 1.14448 cumulative IPC: 1.13815 (Simulation time: 0 hr 37 min 26 sec) 
Heartbeat CPU 0 instructions: 92000000 cycles: 76695502 heartbeat IPC: 1.1341 cumulative IPC: 1.1381 (Simulation time: 0 hr 37 min 50 sec) 
Heartbeat CPU 0 instructions: 93000001 cycles: 77560507 heartbeat IPC: 1.15606 cumulative IPC: 1.13831 (Simulation time: 0 hr 38 min 9 sec) 
Heartbeat CPU 0 instructions: 94000003 cycles: 78438426 heartbeat IPC: 1.13906 cumulative IPC: 1.13832 (Simulation time: 0 hr 38 min 28 sec) 
Heartbeat CPU 0 instructions: 95000003 cycles: 79308026 heartbeat IPC: 1.14995 cumulative IPC: 1.13846 (Simulation time: 0 hr 38 min 48 sec) 
Heartbeat CPU 0 instructions: 96000000 cycles: 80183166 heartbeat IPC: 1.14267 cumulative IPC: 1.13851 (Simulation time: 0 hr 39 min 8 sec) 
Heartbeat CPU 0 instructions: 97000000 cycles: 81062738 heartbeat IPC: 1.13692 cumulative IPC: 1.13849 (Simulation time: 0 hr 39 min 27 sec) 
Heartbeat CPU 0 instructions: 98000001 cycles: 81929953 heartbeat IPC: 1.15312 cumulative IPC: 1.13865 (Simulation time: 0 hr 39 min 46 sec) 
Heartbeat CPU 0 instructions: 99000001 cycles: 82810039 heartbeat IPC: 1.13625 cumulative IPC: 1.13863 (Simulation time: 0 hr 40 min 6 sec) 
Heartbeat CPU 0 instructions: 100000000 cycles: 83683894 heartbeat IPC: 1.14435 cumulative IPC: 1.13869 (Simulation time: 0 hr 40 min 24 sec) 
Heartbeat CPU 0 instructions: 101000002 cycles: 84563623 heartbeat IPC: 1.13672 cumulative IPC: 1.13867 (Simulation time: 0 hr 40 min 43 sec) 
Heartbeat CPU 0 instructions: 102000003 cycles: 85430372 heartbeat IPC: 1.15374 cumulative IPC: 1.13883 (Simulation time: 0 hr 41 min 1 sec) 
Heartbeat CPU 0 instructions: 103000001 cycles: 86309729 heartbeat IPC: 1.13719 cumulative IPC: 1.13881 (Simulation time: 0 hr 41 min 24 sec) 
Heartbeat CPU 0 instructions: 104000000 cycles: 87175561 heartbeat IPC: 1.15496 cumulative IPC: 1.13898 (Simulation time: 0 hr 41 min 40 sec) 
Heartbeat CPU 0 instructions: 105000003 cycles: 88061160 heartbeat IPC: 1.12918 cumulative IPC: 1.13888 (Simulation time: 0 hr 41 min 57 sec) 
Heartbeat CPU 0 instructions: 106000002 cycles: 88927069 heartbeat IPC: 1.15485 cumulative IPC: 1.13904 (Simulation time: 0 hr 42 min 13 sec) 
Heartbeat CPU 0 instructions: 107000000 cycles: 89808143 heartbeat IPC: 1.13498 cumulative IPC: 1.139 (Simulation time: 0 hr 42 min 28 sec) 
Heartbeat CPU 0 instructions: 108000000 cycles: 90675650 heartbeat IPC: 1.15273 cumulative IPC: 1.13914 (Simulation time: 0 hr 42 min 43 sec) 
Heartbeat CPU 0 instructions: 109000002 cycles: 91546251 heartbeat IPC: 1.14863 cumulative IPC: 1.13923 (Simulation time: 0 hr 42 min 58 sec) 
Heartbeat CPU 0 instructions: 110000000 cycles: 92426682 heartbeat IPC: 1.13581 cumulative IPC: 1.1392 (Simulation time: 0 hr 43 min 15 sec) 
Finished CPU 0 instructions: 100000003 cycles: 87781077 cummulative IPC: 1.1392 (Simulation time: 0 hr 43 min 15 sec) 

ChampSim completed all CPUs

Region of Interest Statistics

CPU 0 cummulative IPC: 1.1392 instructions: 100000003 cycles: 87781077
LLC TOTAL     ACCESS:     789842  HIT:     173748  MISS:     616094
LLC LOAD      ACCESS:     401374  HIT:      91242  MISS:     310132
LLC RFO       ACCESS:     194168  HIT:        902  MISS:     193266
LLC PREFETCH  ACCESS:          0  HIT:          0  MISS:          0
LLC WRITEBACK ACCESS:     194300  HIT:      81604  MISS:     112696
