
*** ChampSim Multicore Out-of-Order Simulator ***

Warmup Instructions: 10000000
Simulation Instructions: 100000000
Configuration: 1
Number of CPUs: 1
LLC sets: 2048
LLC ways: 16
Off-chip DRAM Channels: 1 Width: 64-bit Data Rate: 1600 MT/s

CPU 0 runs /datasets/cs240c-wi22-a00-public/data/Assignment2-gz/perlbench_53B.trace.gz
Heartbeat CPU 0 instructions: 1000000 cycles: 617122 heartbeat IPC: 1.62043 cumulative IPC: 1.62043 (Simulation time: 0 hr 0 min 24 sec) 
Heartbeat CPU 0 instructions: 2000001 cycles: 1255808 heartbeat IPC: 1.56572 cumulative IPC: 1.5926 (Simulation time: 0 hr 0 min 48 sec) 
Heartbeat CPU 0 instructions: 3000002 cycles: 1912368 heartbeat IPC: 1.52309 cumulative IPC: 1.56874 (Simulation time: 0 hr 1 min 13 sec) 
Heartbeat CPU 0 instructions: 4000000 cycles: 2528843 heartbeat IPC: 1.62212 cumulative IPC: 1.58175 (Simulation time: 0 hr 1 min 36 sec) 
Heartbeat CPU 0 instructions: 5000001 cycles: 3158592 heartbeat IPC: 1.58794 cumulative IPC: 1.58298 (Simulation time: 0 hr 2 min 0 sec) 
Heartbeat CPU 0 instructions: 6000001 cycles: 3775085 heartbeat IPC: 1.62208 cumulative IPC: 1.58937 (Simulation time: 0 hr 2 min 24 sec) 
Heartbeat CPU 0 instructions: 7000002 cycles: 4399626 heartbeat IPC: 1.60118 cumulative IPC: 1.59104 (Simulation time: 0 hr 2 min 47 sec) 
Heartbeat CPU 0 instructions: 8000000 cycles: 5010256 heartbeat IPC: 1.63765 cumulative IPC: 1.59672 (Simulation time: 0 hr 3 min 10 sec) 
Heartbeat CPU 0 instructions: 9000000 cycles: 5663495 heartbeat IPC: 1.53083 cumulative IPC: 1.58912 (Simulation time: 0 hr 3 min 35 sec) 
Heartbeat CPU 0 instructions: 10000001 cycles: 6298834 heartbeat IPC: 1.57396 cumulative IPC: 1.5876 (Simulation time: 0 hr 4 min 0 sec) 

Warmup complete CPU 0 instructions: 10000001 cycles: 6298834 (Simulation time: 0 hr 4 min 0 sec) 

Heartbeat CPU 0 instructions: 11000000 cycles: 9191332 heartbeat IPC: 0.345722 cumulative IPC: 0.345722 (Simulation time: 0 hr 4 min 29 sec) 
Heartbeat CPU 0 instructions: 12000000 cycles: 12078625 heartbeat IPC: 0.346345 cumulative IPC: 0.346033 (Simulation time: 0 hr 4 min 59 sec) 
Heartbeat CPU 0 instructions: 13000000 cycles: 14441720 heartbeat IPC: 0.423174 cumulative IPC: 0.36842 (Simulation time: 0 hr 5 min 25 sec) 
Heartbeat CPU 0 instructions: 14000000 cycles: 16975131 heartbeat IPC: 0.394725 cumulative IPC: 0.374662 (Simulation time: 0 hr 5 min 52 sec) 
Heartbeat CPU 0 instructions: 15000001 cycles: 19757715 heartbeat IPC: 0.359379 cumulative IPC: 0.371502 (Simulation time: 0 hr 6 min 20 sec) 
Heartbeat CPU 0 instructions: 16000000 cycles: 22425174 heartbeat IPC: 0.374888 cumulative IPC: 0.372062 (Simulation time: 0 hr 6 min 49 sec) 
Heartbeat CPU 0 instructions: 17000001 cycles: 25126737 heartbeat IPC: 0.370156 cumulative IPC: 0.371789 (Simulation time: 0 hr 7 min 16 sec) 
Heartbeat CPU 0 instructions: 18000002 cycles: 27993661 heartbeat IPC: 0.348806 cumulative IPC: 0.368752 (Simulation time: 0 hr 7 min 44 sec) 
Heartbeat CPU 0 instructions: 19000000 cycles: 30846130 heartbeat IPC: 0.350573 cumulative IPC: 0.366639 (Simulation time: 0 hr 8 min 10 sec) 
Heartbeat CPU 0 instructions: 20000000 cycles: 33731945 heartbeat IPC: 0.346523 cumulative IPC: 0.364523 (Simulation time: 0 hr 8 min 41 sec) 
Heartbeat CPU 0 instructions: 21000000 cycles: 36113288 heartbeat IPC: 0.419931 cumulative IPC: 0.368949 (Simulation time: 0 hr 9 min 13 sec) 
Heartbeat CPU 0 instructions: 22000000 cycles: 38195965 heartbeat IPC: 0.480151 cumulative IPC: 0.376209 (Simulation time: 0 hr 9 min 41 sec) 
Heartbeat CPU 0 instructions: 23000001 cycles: 40132301 heartbeat IPC: 0.51644 cumulative IPC: 0.384235 (Simulation time: 0 hr 10 min 9 sec) 
Heartbeat CPU 0 instructions: 24000000 cycles: 42539262 heartbeat IPC: 0.415461 cumulative IPC: 0.386309 (Simulation time: 0 hr 10 min 42 sec) 
Heartbeat CPU 0 instructions: 25000000 cycles: 44551614 heartbeat IPC: 0.496931 cumulative IPC: 0.392128 (Simulation time: 0 hr 11 min 8 sec) 
Heartbeat CPU 0 instructions: 26000001 cycles: 46536061 heartbeat IPC: 0.503919 cumulative IPC: 0.397642 (Simulation time: 0 hr 11 min 34 sec) 
Heartbeat CPU 0 instructions: 27000002 cycles: 48832956 heartbeat IPC: 0.435371 cumulative IPC: 0.399679 (Simulation time: 0 hr 12 min 4 sec) 
Heartbeat CPU 0 instructions: 28000000 cycles: 51428347 heartbeat IPC: 0.385298 cumulative IPC: 0.398852 (Simulation time: 0 hr 12 min 34 sec) 
Heartbeat CPU 0 instructions: 29000000 cycles: 53756116 heartbeat IPC: 0.429596 cumulative IPC: 0.40036 (Simulation time: 0 hr 13 min 5 sec) 
Heartbeat CPU 0 instructions: 30000000 cycles: 55804428 heartbeat IPC: 0.488207 cumulative IPC: 0.403995 (Simulation time: 0 hr 13 min 35 sec) 
Heartbeat CPU 0 instructions: 31000001 cycles: 57792253 heartbeat IPC: 0.503063 cumulative IPC: 0.407819 (Simulation time: 0 hr 13 min 58 sec) 
Heartbeat CPU 0 instructions: 32000000 cycles: 59789004 heartbeat IPC: 0.500813 cumulative IPC: 0.41129 (Simulation time: 0 hr 14 min 24 sec) 
Heartbeat CPU 0 instructions: 33000003 cycles: 62275754 heartbeat IPC: 0.402133 cumulative IPC: 0.410884 (Simulation time: 0 hr 14 min 54 sec) 
Heartbeat CPU 0 instructions: 34000003 cycles: 64999681 heartbeat IPC: 0.367117 cumulative IPC: 0.408853 (Simulation time: 0 hr 15 min 25 sec) 
Heartbeat CPU 0 instructions: 35000000 cycles: 67579486 heartbeat IPC: 0.387625 cumulative IPC: 0.407959 (Simulation time: 0 hr 15 min 53 sec) 
Heartbeat CPU 0 instructions: 36000000 cycles: 70388219 heartbeat IPC: 0.356032 cumulative IPC: 0.405683 (Simulation time: 0 hr 16 min 24 sec) 
Heartbeat CPU 0 instructions: 37000002 cycles: 73268597 heartbeat IPC: 0.347177 cumulative IPC: 0.403167 (Simulation time: 0 hr 16 min 52 sec) 
Heartbeat CPU 0 instructions: 38000000 cycles: 76179895 heartbeat IPC: 0.343489 cumulative IPC: 0.400681 (Simulation time: 0 hr 17 min 19 sec) 
Heartbeat CPU 0 instructions: 39000001 cycles: 78885917 heartbeat IPC: 0.369547 cumulative IPC: 0.39952 (Simulation time: 0 hr 17 min 48 sec) 
Heartbeat CPU 0 instructions: 40000000 cycles: 81511664 heartbeat IPC: 0.380844 cumulative IPC: 0.398868 (Simulation time: 0 hr 18 min 18 sec) 
Heartbeat CPU 0 instructions: 41000002 cycles: 84435674 heartbeat IPC: 0.341997 cumulative IPC: 0.39674 (Simulation time: 0 hr 18 min 46 sec) 
Heartbeat CPU 0 instructions: 42000000 cycles: 87042077 heartbeat IPC: 0.38367 cumulative IPC: 0.396318 (Simulation time: 0 hr 19 min 15 sec) 
Heartbeat CPU 0 instructions: 43000002 cycles: 89926117 heartbeat IPC: 0.346737 cumulative IPC: 0.394608 (Simulation time: 0 hr 19 min 41 sec) 
Heartbeat CPU 0 instructions: 44000000 cycles: 92628180 heartbeat IPC: 0.370087 cumulative IPC: 0.393841 (Simulation time: 0 hr 20 min 11 sec) 
Heartbeat CPU 0 instructions: 45000001 cycles: 94098630 heartbeat IPC: 0.680065 cumulative IPC: 0.398634 (Simulation time: 0 hr 20 min 34 sec) 
Heartbeat CPU 0 instructions: 46000000 cycles: 96132283 heartbeat IPC: 0.491725 cumulative IPC: 0.400742 (Simulation time: 0 hr 20 min 59 sec) 
Heartbeat CPU 0 instructions: 47000002 cycles: 98047822 heartbeat IPC: 0.522047 cumulative IPC: 0.403274 (Simulation time: 0 hr 21 min 23 sec) 
Heartbeat CPU 0 instructions: 48000000 cycles: 99968216 heartbeat IPC: 0.520725 cumulative IPC: 0.405682 (Simulation time: 0 hr 21 min 47 sec) 
Heartbeat CPU 0 instructions: 49000000 cycles: 102339444 heartbeat IPC: 0.421722 cumulative IPC: 0.406078 (Simulation time: 0 hr 22 min 14 sec) 
Heartbeat CPU 0 instructions: 50000002 cycles: 104212347 heartbeat IPC: 0.533932 cumulative IPC: 0.408524 (Simulation time: 0 hr 22 min 39 sec) 
Heartbeat CPU 0 instructions: 51000000 cycles: 106143614 heartbeat IPC: 0.517794 cumulative IPC: 0.410637 (Simulation time: 0 hr 23 min 3 sec) 
Heartbeat CPU 0 instructions: 52000000 cycles: 108058568 heartbeat IPC: 0.522206 cumulative IPC: 0.412737 (Simulation time: 0 hr 23 min 27 sec) 
Heartbeat CPU 0 instructions: 53000002 cycles: 110011432 heartbeat IPC: 0.512069 cumulative IPC: 0.414607 (Simulation time: 0 hr 23 min 51 sec) 
Heartbeat CPU 0 instructions: 54000000 cycles: 112948092 heartbeat IPC: 0.340522 cumulative IPC: 0.412567 (Simulation time: 0 hr 24 min 17 sec) 
Heartbeat CPU 0 instructions: 55000000 cycles: 115458832 heartbeat IPC: 0.398289 cumulative IPC: 0.412239 (Simulation time: 0 hr 24 min 44 sec) 
Heartbeat CPU 0 instructions: 56000000 cycles: 118290148 heartbeat IPC: 0.353193 cumulative IPC: 0.410746 (Simulation time: 0 hr 25 min 11 sec) 
Heartbeat CPU 0 instructions: 57000001 cycles: 121334419 heartbeat IPC: 0.328486 cumulative IPC: 0.408569 (Simulation time: 0 hr 25 min 39 sec) 
Heartbeat CPU 0 instructions: 58000003 cycles: 124317564 heartbeat IPC: 0.335217 cumulative IPC: 0.406715 (Simulation time: 0 hr 26 min 11 sec) 
Heartbeat CPU 0 instructions: 59000002 cycles: 127271226 heartbeat IPC: 0.338562 cumulative IPC: 0.405051 (Simulation time: 0 hr 26 min 37 sec) 
Heartbeat CPU 0 instructions: 60000000 cycles: 130108408 heartbeat IPC: 0.352462 cumulative IPC: 0.403846 (Simulation time: 0 hr 27 min 2 sec) 
Heartbeat CPU 0 instructions: 61000002 cycles: 132752802 heartbeat IPC: 0.378159 cumulative IPC: 0.403309 (Simulation time: 0 hr 27 min 28 sec) 
Heartbeat CPU 0 instructions: 62000002 cycles: 135453341 heartbeat IPC: 0.370296 cumulative IPC: 0.402619 (Simulation time: 0 hr 27 min 54 sec) 
Heartbeat CPU 0 instructions: 63000001 cycles: 138134416 heartbeat IPC: 0.372984 cumulative IPC: 0.402016 (Simulation time: 0 hr 28 min 20 sec) 
Heartbeat CPU 0 instructions: 64000000 cycles: 140803974 heartbeat IPC: 0.374593 cumulative IPC: 0.401472 (Simulation time: 0 hr 28 min 45 sec) 
Heartbeat CPU 0 instructions: 65000003 cycles: 143454964 heartbeat IPC: 0.377219 cumulative IPC: 0.401003 (Simulation time: 0 hr 29 min 10 sec) 
Heartbeat CPU 0 instructions: 66000001 cycles: 146095164 heartbeat IPC: 0.378758 cumulative IPC: 0.400583 (Simulation time: 0 hr 29 min 35 sec) 
Heartbeat CPU 0 instructions: 67000001 cycles: 148726150 heartbeat IPC: 0.380086 cumulative IPC: 0.400204 (Simulation time: 0 hr 30 min 3 sec) 
Heartbeat CPU 0 instructions: 68000000 cycles: 151403992 heartbeat IPC: 0.373435 cumulative IPC: 0.39971 (Simulation time: 0 hr 30 min 32 sec) 
Heartbeat CPU 0 instructions: 69000001 cycles: 154058413 heartbeat IPC: 0.37673 cumulative IPC: 0.399297 (Simulation time: 0 hr 31 min 1 sec) 
Heartbeat CPU 0 instructions: 70000001 cycles: 156684534 heartbeat IPC: 0.38079 cumulative IPC: 0.398974 (Simulation time: 0 hr 31 min 31 sec) 
Heartbeat CPU 0 instructions: 71000001 cycles: 159428665 heartbeat IPC: 0.364414 cumulative IPC: 0.398355 (Simulation time: 0 hr 32 min 3 sec) 
Heartbeat CPU 0 instructions: 72000000 cycles: 162060980 heartbeat IPC: 0.379893 cumulative IPC: 0.398043 (Simulation time: 0 hr 32 min 34 sec) 
Heartbeat CPU 0 instructions: 73000002 cycles: 164759622 heartbeat IPC: 0.370557 cumulative IPC: 0.397575 (Simulation time: 0 hr 33 min 4 sec) 
Heartbeat CPU 0 instructions: 74000001 cycles: 167455771 heartbeat IPC: 0.370899 cumulative IPC: 0.397128 (Simulation time: 0 hr 33 min 32 sec) 
Heartbeat CPU 0 instructions: 75000001 cycles: 170124516 heartbeat IPC: 0.374708 cumulative IPC: 0.396763 (Simulation time: 0 hr 34 min 1 sec) 
Heartbeat CPU 0 instructions: 76000000 cycles: 172778929 heartbeat IPC: 0.376731 cumulative IPC: 0.396444 (Simulation time: 0 hr 34 min 29 sec) 
Heartbeat CPU 0 instructions: 77000002 cycles: 175461859 heartbeat IPC: 0.372728 cumulative IPC: 0.396068 (Simulation time: 0 hr 34 min 56 sec) 
Heartbeat CPU 0 instructions: 78000000 cycles: 178127706 heartbeat IPC: 0.375115 cumulative IPC: 0.395743 (Simulation time: 0 hr 35 min 22 sec) 
Heartbeat CPU 0 instructions: 79000002 cycles: 180800107 heartbeat IPC: 0.374196 cumulative IPC: 0.395413 (Simulation time: 0 hr 35 min 51 sec) 
Heartbeat CPU 0 instructions: 80000000 cycles: 183446076 heartbeat IPC: 0.377933 cumulative IPC: 0.395151 (Simulation time: 0 hr 36 min 20 sec) 
Heartbeat CPU 0 instructions: 81000000 cycles: 186070060 heartbeat IPC: 0.3811 cumulative IPC: 0.394946 (Simulation time: 0 hr 36 min 47 sec) 
Heartbeat CPU 0 instructions: 82000003 cycles: 188753310 heartbeat IPC: 0.372683 cumulative IPC: 0.394619 (Simulation time: 0 hr 37 min 16 sec) 
Heartbeat CPU 0 instructions: 83000000 cycles: 191412820 heartbeat IPC: 0.376008 cumulative IPC: 0.394352 (Simulation time: 0 hr 37 min 42 sec) 
Heartbeat CPU 0 instructions: 84000000 cycles: 194081886 heartbeat IPC: 0.374663 cumulative IPC: 0.394072 (Simulation time: 0 hr 38 min 9 sec) 
Heartbeat CPU 0 instructions: 85000002 cycles: 196776619 heartbeat IPC: 0.371095 cumulative IPC: 0.393747 (Simulation time: 0 hr 38 min 34 sec) 
Heartbeat CPU 0 instructions: 86000000 cycles: 199261545 heartbeat IPC: 0.402426 cumulative IPC: 0.393858 (Simulation time: 0 hr 39 min 0 sec) 
Heartbeat CPU 0 instructions: 87000000 cycles: 201407497 heartbeat IPC: 0.465994 cumulative IPC: 0.394652 (Simulation time: 0 hr 39 min 23 sec) 
Heartbeat CPU 0 instructions: 88000000 cycles: 203405729 heartbeat IPC: 0.500442 cumulative IPC: 0.395724 (Simulation time: 0 hr 39 min 45 sec) 
Heartbeat CPU 0 instructions: 89000001 cycles: 205488497 heartbeat IPC: 0.480131 cumulative IPC: 0.396607 (Simulation time: 0 hr 40 min 6 sec) 
Heartbeat CPU 0 instructions: 90000000 cycles: 208196292 heartbeat IPC: 0.369304 cumulative IPC: 0.396241 (Simulation time: 0 hr 40 min 31 sec) 
Heartbeat CPU 0 instructions: 91000001 cycles: 210987566 heartbeat IPC: 0.35826 cumulative IPC: 0.395723 (Simulation time: 0 hr 40 min 56 sec) 
Heartbeat CPU 0 instructions: 92000000 cycles: 213693879 heartbeat IPC: 0.369506 cumulative IPC: 0.395381 (Simulation time: 0 hr 41 min 18 sec) 
Heartbeat CPU 0 instructions: 93000000 cycles: 216357990 heartbeat IPC: 0.37536 cumulative IPC: 0.395127 (Simulation time: 0 hr 41 min 38 sec) 
Heartbeat CPU 0 instructions: 94000002 cycles: 219020290 heartbeat IPC: 0.375616 cumulative IPC: 0.394883 (Simulation time: 0 hr 41 min 58 sec) 
Heartbeat CPU 0 instructions: 95000000 cycles: 221650366 heartbeat IPC: 0.380216 cumulative IPC: 0.394703 (Simulation time: 0 hr 42 min 18 sec) 
Heartbeat CPU 0 instructions: 96000000 cycles: 224328390 heartbeat IPC: 0.37341 cumulative IPC: 0.394442 (Simulation time: 0 hr 42 min 38 sec) 
Heartbeat CPU 0 instructions: 97000000 cycles: 226981352 heartbeat IPC: 0.376937 cumulative IPC: 0.394231 (Simulation time: 0 hr 42 min 57 sec) 
Heartbeat CPU 0 instructions: 98000000 cycles: 229618068 heartbeat IPC: 0.37926 cumulative IPC: 0.394055 (Simulation time: 0 hr 43 min 15 sec) 
Heartbeat CPU 0 instructions: 99000002 cycles: 232238949 heartbeat IPC: 0.381552 cumulative IPC: 0.39391 (Simulation time: 0 hr 43 min 32 sec) 
Heartbeat CPU 0 instructions: 100000000 cycles: 234874439 heartbeat IPC: 0.379435 cumulative IPC: 0.393743 (Simulation time: 0 hr 43 min 50 sec) 
Heartbeat CPU 0 instructions: 101000002 cycles: 237542151 heartbeat IPC: 0.374854 cumulative IPC: 0.393525 (Simulation time: 0 hr 44 min 6 sec) 
Heartbeat CPU 0 instructions: 102000000 cycles: 240186310 heartbeat IPC: 0.378191 cumulative IPC: 0.393352 (Simulation time: 0 hr 44 min 23 sec) 
Heartbeat CPU 0 instructions: 103000000 cycles: 242827482 heartbeat IPC: 0.37862 cumulative IPC: 0.393187 (Simulation time: 0 hr 44 min 39 sec) 
Heartbeat CPU 0 instructions: 104000000 cycles: 245486545 heartbeat IPC: 0.376072 cumulative IPC: 0.392997 (Simulation time: 0 hr 44 min 57 sec) 
Heartbeat CPU 0 instructions: 105000003 cycles: 247667022 heartbeat IPC: 0.458617 cumulative IPC: 0.39359 (Simulation time: 0 hr 45 min 11 sec) 
Heartbeat CPU 0 instructions: 106000000 cycles: 249645975 heartbeat IPC: 0.505316 cumulative IPC: 0.394498 (Simulation time: 0 hr 45 min 25 sec) 
Heartbeat CPU 0 instructions: 107000003 cycles: 251624006 heartbeat IPC: 0.505555 cumulative IPC: 0.395394 (Simulation time: 0 hr 45 min 37 sec) 
Heartbeat CPU 0 instructions: 108000000 cycles: 254474898 heartbeat IPC: 0.350766 cumulative IPC: 0.394881 (Simulation time: 0 hr 45 min 50 sec) 
Heartbeat CPU 0 instructions: 109000001 cycles: 257195036 heartbeat IPC: 0.367629 cumulative IPC: 0.394585 (Simulation time: 0 hr 46 min 3 sec) 
Heartbeat CPU 0 instructions: 110000000 cycles: 259778070 heartbeat IPC: 0.387141 cumulative IPC: 0.39451 (Simulation time: 0 hr 46 min 16 sec) 
Finished CPU 0 instructions: 100000000 cycles: 253479237 cummulative IPC: 0.39451 (Simulation time: 0 hr 46 min 16 sec) 

ChampSim completed all CPUs

Region of Interest Statistics

CPU 0 cummulative IPC: 0.39451 instructions: 100000000 cycles: 253479237
LLC TOTAL     ACCESS:     411672  HIT:     390316  MISS:      21356
LLC LOAD      ACCESS:     296217  HIT:     280644  MISS:      15573
LLC RFO       ACCESS:      32929  HIT:      27705  MISS:       5224
LLC PREFETCH  ACCESS:          0  HIT:          0  MISS:          0
LLC WRITEBACK ACCESS:      82526  HIT:      81967  MISS:        559
