
*** ChampSim Multicore Out-of-Order Simulator ***

Warmup Instructions: 10000000
Simulation Instructions: 100000000
Configuration: 2
Number of CPUs: 1
LLC sets: 2048
LLC ways: 16
Off-chip DRAM Channels: 1 Width: 64-bit Data Rate: 1600 MT/s

CPU 0 runs /datasets/cs240c-wi22-a00-public/data/Assignment2-gz/cactusADM_734B.trace.gz
CPU 0 L1D next line prefetcher
CPU 0 L2C IP-based stride prefetcher
Heartbeat CPU 0 instructions: 1000003 cycles: 592726 heartbeat IPC: 1.68713 cumulative IPC: 1.68713 (Simulation time: 0 hr 0 min 24 sec) 
select_counter is 1017
Heartbeat CPU 0 instructions: 2000001 cycles: 1185927 heartbeat IPC: 1.68577 cumulative IPC: 1.68645 (Simulation time: 0 hr 0 min 48 sec) 
select_counter is 1026
Heartbeat CPU 0 instructions: 3000003 cycles: 1778979 heartbeat IPC: 1.6862 cumulative IPC: 1.68636 (Simulation time: 0 hr 1 min 12 sec) 
select_counter is 1021
Heartbeat CPU 0 instructions: 4000000 cycles: 2371929 heartbeat IPC: 1.68648 cumulative IPC: 1.68639 (Simulation time: 0 hr 1 min 37 sec) 
select_counter is 1017
Heartbeat CPU 0 instructions: 5000000 cycles: 2965279 heartbeat IPC: 1.68535 cumulative IPC: 1.68618 (Simulation time: 0 hr 2 min 3 sec) 
select_counter is 1027
Heartbeat CPU 0 instructions: 6000002 cycles: 3558551 heartbeat IPC: 1.68557 cumulative IPC: 1.68608 (Simulation time: 0 hr 2 min 28 sec) 
select_counter is 1029
Heartbeat CPU 0 instructions: 7000000 cycles: 4151394 heartbeat IPC: 1.68678 cumulative IPC: 1.68618 (Simulation time: 0 hr 2 min 54 sec) 
select_counter is 1042
Heartbeat CPU 0 instructions: 8000000 cycles: 4744343 heartbeat IPC: 1.68649 cumulative IPC: 1.68622 (Simulation time: 0 hr 3 min 17 sec) 
select_counter is 1047
Heartbeat CPU 0 instructions: 9000001 cycles: 5337493 heartbeat IPC: 1.68592 cumulative IPC: 1.68619 (Simulation time: 0 hr 3 min 41 sec) 
select_counter is 1067
Heartbeat CPU 0 instructions: 10000003 cycles: 5958967 heartbeat IPC: 1.60908 cumulative IPC: 1.67814 (Simulation time: 0 hr 4 min 5 sec) 
select_counter is 1087

Warmup complete CPU 0 instructions: 10000003 cycles: 5958967 (Simulation time: 0 hr 4 min 5 sec) 

Heartbeat CPU 0 instructions: 11000002 cycles: 12559137 heartbeat IPC: 0.151511 cumulative IPC: 0.151511 (Simulation time: 0 hr 4 min 34 sec) 
select_counter is 1228
Heartbeat CPU 0 instructions: 12000000 cycles: 14301411 heartbeat IPC: 0.573961 cumulative IPC: 0.239738 (Simulation time: 0 hr 4 min 59 sec) 
select_counter is 1258
Heartbeat CPU 0 instructions: 13000002 cycles: 15989059 heartbeat IPC: 0.592542 cumulative IPC: 0.2991 (Simulation time: 0 hr 5 min 24 sec) 
select_counter is 1277
Heartbeat CPU 0 instructions: 14000000 cycles: 17674596 heartbeat IPC: 0.593282 cumulative IPC: 0.341424 (Simulation time: 0 hr 5 min 49 sec) 
select_counter is 1310
Heartbeat CPU 0 instructions: 15000003 cycles: 19414251 heartbeat IPC: 0.574828 cumulative IPC: 0.371601 (Simulation time: 0 hr 6 min 13 sec) 
select_counter is 1341
Heartbeat CPU 0 instructions: 16000000 cycles: 21156811 heartbeat IPC: 0.573867 cumulative IPC: 0.394793 (Simulation time: 0 hr 6 min 38 sec) 
select_counter is 1376
Heartbeat CPU 0 instructions: 17000002 cycles: 22890916 heartbeat IPC: 0.576667 cumulative IPC: 0.41342 (Simulation time: 0 hr 7 min 3 sec) 
select_counter is 1418
Heartbeat CPU 0 instructions: 18000001 cycles: 24548983 heartbeat IPC: 0.603111 cumulative IPC: 0.430338 (Simulation time: 0 hr 7 min 30 sec) 
select_counter is 1456
Heartbeat CPU 0 instructions: 19000000 cycles: 26265928 heartbeat IPC: 0.582429 cumulative IPC: 0.443198 (Simulation time: 0 hr 7 min 55 sec) 
select_counter is 1489
Heartbeat CPU 0 instructions: 20000000 cycles: 28008798 heartbeat IPC: 0.573766 cumulative IPC: 0.453518 (Simulation time: 0 hr 8 min 20 sec) 
select_counter is 1531
Heartbeat CPU 0 instructions: 21000002 cycles: 29752273 heartbeat IPC: 0.573568 cumulative IPC: 0.462315 (Simulation time: 0 hr 8 min 45 sec) 
select_counter is 1575
Heartbeat CPU 0 instructions: 22000000 cycles: 31461518 heartbeat IPC: 0.585052 cumulative IPC: 0.470541 (Simulation time: 0 hr 9 min 10 sec) 
select_counter is 1623
Heartbeat CPU 0 instructions: 23000001 cycles: 33125825 heartbeat IPC: 0.600851 cumulative IPC: 0.478524 (Simulation time: 0 hr 9 min 35 sec) 
select_counter is 1664
Heartbeat CPU 0 instructions: 24000000 cycles: 40793552 heartbeat IPC: 0.130417 cumulative IPC: 0.401899 (Simulation time: 0 hr 10 min 6 sec) 
select_counter is 1615
Heartbeat CPU 0 instructions: 25000000 cycles: 42534930 heartbeat IPC: 0.574258 cumulative IPC: 0.410105 (Simulation time: 0 hr 10 min 32 sec) 
select_counter is 1643
Heartbeat CPU 0 instructions: 26000002 cycles: 44269598 heartbeat IPC: 0.57648 cumulative IPC: 0.417639 (Simulation time: 0 hr 10 min 59 sec) 
select_counter is 1631
Heartbeat CPU 0 instructions: 27000002 cycles: 45933118 heartbeat IPC: 0.601135 cumulative IPC: 0.425275 (Simulation time: 0 hr 11 min 24 sec) 
select_counter is 1625
Heartbeat CPU 0 instructions: 28000000 cycles: 47659000 heartbeat IPC: 0.579413 cumulative IPC: 0.431654 (Simulation time: 0 hr 11 min 51 sec) 
select_counter is 1622
Heartbeat CPU 0 instructions: 29000001 cycles: 49418296 heartbeat IPC: 0.56841 cumulative IPC: 0.43719 (Simulation time: 0 hr 12 min 16 sec) 
select_counter is 1626
Heartbeat CPU 0 instructions: 30000001 cycles: 51160542 heartbeat IPC: 0.573972 cumulative IPC: 0.442462 (Simulation time: 0 hr 12 min 42 sec) 
select_counter is 1649
Heartbeat CPU 0 instructions: 31000003 cycles: 52873260 heartbeat IPC: 0.583868 cumulative IPC: 0.447625 (Simulation time: 0 hr 13 min 15 sec) 
select_counter is 1678
Heartbeat CPU 0 instructions: 32000000 cycles: 54531902 heartbeat IPC: 0.602901 cumulative IPC: 0.452927 (Simulation time: 0 hr 13 min 41 sec) 
select_counter is 1704
Heartbeat CPU 0 instructions: 33000000 cycles: 56267146 heartbeat IPC: 0.576288 cumulative IPC: 0.457182 (Simulation time: 0 hr 14 min 10 sec) 
select_counter is 1737
Heartbeat CPU 0 instructions: 34000001 cycles: 58011183 heartbeat IPC: 0.573383 cumulative IPC: 0.461075 (Simulation time: 0 hr 14 min 36 sec) 
select_counter is 1755
Heartbeat CPU 0 instructions: 35000000 cycles: 59749519 heartbeat IPC: 0.575262 cumulative IPC: 0.464766 (Simulation time: 0 hr 15 min 2 sec) 
select_counter is 1797
Heartbeat CPU 0 instructions: 36000000 cycles: 61432389 heartbeat IPC: 0.594223 cumulative IPC: 0.468693 (Simulation time: 0 hr 15 min 28 sec) 
select_counter is 1829
Heartbeat CPU 0 instructions: 37000003 cycles: 69039556 heartbeat IPC: 0.131455 cumulative IPC: 0.428024 (Simulation time: 0 hr 16 min 2 sec) 
select_counter is 1805
Heartbeat CPU 0 instructions: 38000001 cycles: 70780574 heartbeat IPC: 0.574375 cumulative IPC: 0.431955 (Simulation time: 0 hr 16 min 28 sec) 
select_counter is 1806
Heartbeat CPU 0 instructions: 39000001 cycles: 72521437 heartbeat IPC: 0.574428 cumulative IPC: 0.435681 (Simulation time: 0 hr 16 min 55 sec) 
select_counter is 1793
Heartbeat CPU 0 instructions: 40000000 cycles: 74239125 heartbeat IPC: 0.582177 cumulative IPC: 0.439366 (Simulation time: 0 hr 17 min 21 sec) 
select_counter is 1779
Heartbeat CPU 0 instructions: 41000001 cycles: 75895040 heartbeat IPC: 0.603896 cumulative IPC: 0.443262 (Simulation time: 0 hr 17 min 47 sec) 
select_counter is 1762
Heartbeat CPU 0 instructions: 42000002 cycles: 77631046 heartbeat IPC: 0.576035 cumulative IPC: 0.446478 (Simulation time: 0 hr 18 min 12 sec) 
select_counter is 1749
Heartbeat CPU 0 instructions: 43000000 cycles: 79372404 heartbeat IPC: 0.574263 cumulative IPC: 0.449509 (Simulation time: 0 hr 18 min 39 sec) 
select_counter is 1760
Heartbeat CPU 0 instructions: 44000000 cycles: 81112870 heartbeat IPC: 0.574559 cumulative IPC: 0.452405 (Simulation time: 0 hr 19 min 5 sec) 
select_counter is 1774
Heartbeat CPU 0 instructions: 45000000 cycles: 82798456 heartbeat IPC: 0.593265 cumulative IPC: 0.455495 (Simulation time: 0 hr 19 min 30 sec) 
select_counter is 1779
Heartbeat CPU 0 instructions: 46000003 cycles: 84481928 heartbeat IPC: 0.594012 cumulative IPC: 0.458465 (Simulation time: 0 hr 19 min 57 sec) 
select_counter is 1790
Heartbeat CPU 0 instructions: 47000001 cycles: 86220123 heartbeat IPC: 0.575308 cumulative IPC: 0.460995 (Simulation time: 0 hr 20 min 23 sec) 
select_counter is 1802
Heartbeat CPU 0 instructions: 48000000 cycles: 87961296 heartbeat IPC: 0.574325 cumulative IPC: 0.463401 (Simulation time: 0 hr 20 min 50 sec) 
select_counter is 1826
Heartbeat CPU 0 instructions: 49000000 cycles: 89697577 heartbeat IPC: 0.575944 cumulative IPC: 0.465735 (Simulation time: 0 hr 21 min 15 sec) 
select_counter is 1861
Heartbeat CPU 0 instructions: 50000001 cycles: 97218858 heartbeat IPC: 0.132956 cumulative IPC: 0.438309 (Simulation time: 0 hr 21 min 47 sec) 
select_counter is 1815
Heartbeat CPU 0 instructions: 51000000 cycles: 98948792 heartbeat IPC: 0.578056 cumulative IPC: 0.440908 (Simulation time: 0 hr 22 min 13 sec) 
select_counter is 1837
Heartbeat CPU 0 instructions: 52000000 cycles: 100687845 heartbeat IPC: 0.575026 cumulative IPC: 0.443371 (Simulation time: 0 hr 22 min 39 sec) 
select_counter is 1827
Heartbeat CPU 0 instructions: 53000003 cycles: 102425773 heartbeat IPC: 0.5754 cumulative IPC: 0.445749 (Simulation time: 0 hr 23 min 7 sec) 
select_counter is 1818
Heartbeat CPU 0 instructions: 54000000 cycles: 104113216 heartbeat IPC: 0.592611 cumulative IPC: 0.448274 (Simulation time: 0 hr 23 min 33 sec) 
select_counter is 1802
Heartbeat CPU 0 instructions: 55000001 cycles: 105789445 heartbeat IPC: 0.596578 cumulative IPC: 0.450764 (Simulation time: 0 hr 24 min 0 sec) 
select_counter is 1790
Heartbeat CPU 0 instructions: 56000000 cycles: 107541287 heartbeat IPC: 0.570827 cumulative IPC: 0.452835 (Simulation time: 0 hr 24 min 27 sec) 
select_counter is 1783
Heartbeat CPU 0 instructions: 57000000 cycles: 109290102 heartbeat IPC: 0.571816 cumulative IPC: 0.454848 (Simulation time: 0 hr 24 min 52 sec) 
select_counter is 1794
Heartbeat CPU 0 instructions: 58000001 cycles: 111023893 heartbeat IPC: 0.576771 cumulative IPC: 0.45686 (Simulation time: 0 hr 25 min 18 sec) 
select_counter is 1815
Heartbeat CPU 0 instructions: 59000000 cycles: 112682357 heartbeat IPC: 0.602967 cumulative IPC: 0.459131 (Simulation time: 0 hr 25 min 44 sec) 
select_counter is 1814
Heartbeat CPU 0 instructions: 60000000 cycles: 114388895 heartbeat IPC: 0.585982 cumulative IPC: 0.461127 (Simulation time: 0 hr 26 min 10 sec) 
select_counter is 1837
Heartbeat CPU 0 instructions: 61000002 cycles: 116128205 heartbeat IPC: 0.574942 cumulative IPC: 0.462924 (Simulation time: 0 hr 26 min 35 sec) 
select_counter is 1840
Heartbeat CPU 0 instructions: 62000002 cycles: 117868111 heartbeat IPC: 0.574744 cumulative IPC: 0.464663 (Simulation time: 0 hr 26 min 59 sec) 
select_counter is 1876
Heartbeat CPU 0 instructions: 63000002 cycles: 125312102 heartbeat IPC: 0.134337 cumulative IPC: 0.44406 (Simulation time: 0 hr 27 min 30 sec) 
select_counter is 1875
Heartbeat CPU 0 instructions: 64000000 cycles: 127265769 heartbeat IPC: 0.511857 cumulative IPC: 0.445152 (Simulation time: 0 hr 27 min 55 sec) 
select_counter is 1874
Heartbeat CPU 0 instructions: 65000003 cycles: 129002650 heartbeat IPC: 0.575746 cumulative IPC: 0.446996 (Simulation time: 0 hr 28 min 20 sec) 
select_counter is 1829
Heartbeat CPU 0 instructions: 66000001 cycles: 130743790 heartbeat IPC: 0.574335 cumulative IPC: 0.448773 (Simulation time: 0 hr 28 min 45 sec) 
select_counter is 1821
Heartbeat CPU 0 instructions: 67000000 cycles: 132480120 heartbeat IPC: 0.575927 cumulative IPC: 0.450518 (Simulation time: 0 hr 29 min 11 sec) 
select_counter is 1800
Heartbeat CPU 0 instructions: 68000000 cycles: 134144263 heartbeat IPC: 0.60091 cumulative IPC: 0.45247 (Simulation time: 0 hr 29 min 37 sec) 
select_counter is 1777
Heartbeat CPU 0 instructions: 69000000 cycles: 135846468 heartbeat IPC: 0.587473 cumulative IPC: 0.454239 (Simulation time: 0 hr 30 min 6 sec) 
select_counter is 1770
Heartbeat CPU 0 instructions: 70000001 cycles: 137587623 heartbeat IPC: 0.574332 cumulative IPC: 0.455828 (Simulation time: 0 hr 30 min 29 sec) 
select_counter is 1766
Heartbeat CPU 0 instructions: 71000001 cycles: 139330275 heartbeat IPC: 0.573838 cumulative IPC: 0.45737 (Simulation time: 0 hr 30 min 54 sec) 
select_counter is 1773
Heartbeat CPU 0 instructions: 72000000 cycles: 141051728 heartbeat IPC: 0.580904 cumulative IPC: 0.458944 (Simulation time: 0 hr 31 min 18 sec) 
select_counter is 1768
Heartbeat CPU 0 instructions: 73000003 cycles: 142701356 heartbeat IPC: 0.606199 cumulative IPC: 0.46072 (Simulation time: 0 hr 31 min 42 sec) 
select_counter is 1776
Heartbeat CPU 0 instructions: 74000002 cycles: 144433680 heartbeat IPC: 0.577259 cumulative IPC: 0.462178 (Simulation time: 0 hr 32 min 8 sec) 
select_counter is 1786
Heartbeat CPU 0 instructions: 75000002 cycles: 146174843 heartbeat IPC: 0.574329 cumulative IPC: 0.463571 (Simulation time: 0 hr 32 min 34 sec) 
select_counter is 1823
Heartbeat CPU 0 instructions: 76000000 cycles: 152413104 heartbeat IPC: 0.160301 cumulative IPC: 0.450653 (Simulation time: 0 hr 33 min 3 sec) 
select_counter is 1436
Heartbeat CPU 0 instructions: 77000000 cycles: 155609063 heartbeat IPC: 0.312895 cumulative IPC: 0.447711 (Simulation time: 0 hr 33 min 30 sec) 
select_counter is 1266
Heartbeat CPU 0 instructions: 78000002 cycles: 157305723 heartbeat IPC: 0.589394 cumulative IPC: 0.449299 (Simulation time: 0 hr 33 min 55 sec) 
select_counter is 1249
Heartbeat CPU 0 instructions: 79000002 cycles: 159046618 heartbeat IPC: 0.574417 cumulative IPC: 0.450722 (Simulation time: 0 hr 34 min 24 sec) 
select_counter is 1232
Heartbeat CPU 0 instructions: 80000000 cycles: 160784753 heartbeat IPC: 0.575328 cumulative IPC: 0.452121 (Simulation time: 0 hr 34 min 48 sec) 
select_counter is 1215
Heartbeat CPU 0 instructions: 81000000 cycles: 162512699 heartbeat IPC: 0.578722 cumulative IPC: 0.453518 (Simulation time: 0 hr 35 min 15 sec) 
select_counter is 1188
Heartbeat CPU 0 instructions: 82000003 cycles: 164158968 heartbeat IPC: 0.607436 cumulative IPC: 0.45512 (Simulation time: 0 hr 35 min 38 sec) 
select_counter is 1184
Heartbeat CPU 0 instructions: 83000003 cycles: 165890210 heartbeat IPC: 0.57762 cumulative IPC: 0.456446 (Simulation time: 0 hr 35 min 59 sec) 
select_counter is 1171
Heartbeat CPU 0 instructions: 84000000 cycles: 167630928 heartbeat IPC: 0.574474 cumulative IPC: 0.457717 (Simulation time: 0 hr 36 min 20 sec) 
select_counter is 1160
Heartbeat CPU 0 instructions: 85000003 cycles: 169372068 heartbeat IPC: 0.574338 cumulative IPC: 0.45896 (Simulation time: 0 hr 36 min 42 sec) 
select_counter is 1153
Heartbeat CPU 0 instructions: 86000000 cycles: 171067654 heartbeat IPC: 0.589765 cumulative IPC: 0.460303 (Simulation time: 0 hr 37 min 4 sec) 
select_counter is 1152
Heartbeat CPU 0 instructions: 87000000 cycles: 172742282 heartbeat IPC: 0.597148 cumulative IPC: 0.461677 (Simulation time: 0 hr 37 min 25 sec) 
select_counter is 1160
Heartbeat CPU 0 instructions: 88000000 cycles: 174509768 heartbeat IPC: 0.565775 cumulative IPC: 0.462768 (Simulation time: 0 hr 37 min 45 sec) 
select_counter is 1175
Heartbeat CPU 0 instructions: 89000002 cycles: 179649796 heartbeat IPC: 0.194552 cumulative IPC: 0.454831 (Simulation time: 0 hr 38 min 6 sec) 
select_counter is 968
Heartbeat CPU 0 instructions: 90000002 cycles: 183923765 heartbeat IPC: 0.233975 cumulative IPC: 0.449527 (Simulation time: 0 hr 38 min 25 sec) 
select_counter is 834
Heartbeat CPU 0 instructions: 91000003 cycles: 185570657 heartbeat IPC: 0.607205 cumulative IPC: 0.450973 (Simulation time: 0 hr 38 min 43 sec) 
select_counter is 837
Heartbeat CPU 0 instructions: 92000000 cycles: 187297280 heartbeat IPC: 0.579163 cumulative IPC: 0.452193 (Simulation time: 0 hr 39 min 1 sec) 
select_counter is 831
Heartbeat CPU 0 instructions: 93000000 cycles: 189035822 heartbeat IPC: 0.575195 cumulative IPC: 0.453362 (Simulation time: 0 hr 39 min 18 sec) 
select_counter is 824
Heartbeat CPU 0 instructions: 94000003 cycles: 190776300 heartbeat IPC: 0.574557 cumulative IPC: 0.454503 (Simulation time: 0 hr 39 min 34 sec) 
select_counter is 818
Heartbeat CPU 0 instructions: 95000000 cycles: 192475993 heartbeat IPC: 0.58834 cumulative IPC: 0.455722 (Simulation time: 0 hr 39 min 53 sec) 
select_counter is 798
Heartbeat CPU 0 instructions: 96000000 cycles: 194147251 heartbeat IPC: 0.598352 cumulative IPC: 0.456989 (Simulation time: 0 hr 40 min 8 sec) 
select_counter is 777
Heartbeat CPU 0 instructions: 97000001 cycles: 195885046 heartbeat IPC: 0.575442 cumulative IPC: 0.458073 (Simulation time: 0 hr 40 min 23 sec) 
select_counter is 753
Heartbeat CPU 0 instructions: 98000000 cycles: 197627393 heartbeat IPC: 0.573938 cumulative IPC: 0.459126 (Simulation time: 0 hr 40 min 37 sec) 
select_counter is 735
Heartbeat CPU 0 instructions: 99000001 cycles: 199365880 heartbeat IPC: 0.575213 cumulative IPC: 0.46017 (Simulation time: 0 hr 40 min 51 sec) 
select_counter is 728
Heartbeat CPU 0 instructions: 100000000 cycles: 201035269 heartbeat IPC: 0.599021 cumulative IPC: 0.461358 (Simulation time: 0 hr 41 min 5 sec) 
select_counter is 728
Heartbeat CPU 0 instructions: 101000000 cycles: 202736218 heartbeat IPC: 0.587907 cumulative IPC: 0.462452 (Simulation time: 0 hr 41 min 19 sec) 
select_counter is 728
Heartbeat CPU 0 instructions: 102000000 cycles: 206755479 heartbeat IPC: 0.248802 cumulative IPC: 0.458175 (Simulation time: 0 hr 41 min 33 sec) 
select_counter is 680
Heartbeat CPU 0 instructions: 103000000 cycles: 212098557 heartbeat IPC: 0.187158 cumulative IPC: 0.451151 (Simulation time: 0 hr 41 min 49 sec) 
select_counter is 774
Heartbeat CPU 0 instructions: 104000000 cycles: 213801286 heartbeat IPC: 0.587292 cumulative IPC: 0.452266 (Simulation time: 0 hr 42 min 3 sec) 
select_counter is 774
Heartbeat CPU 0 instructions: 105000000 cycles: 215462484 heartbeat IPC: 0.601975 cumulative IPC: 0.453453 (Simulation time: 0 hr 42 min 19 sec) 
select_counter is 755
Heartbeat CPU 0 instructions: 106000002 cycles: 217194426 heartbeat IPC: 0.577388 cumulative IPC: 0.454469 (Simulation time: 0 hr 42 min 32 sec) 
select_counter is 747
Heartbeat CPU 0 instructions: 107000001 cycles: 218933026 heartbeat IPC: 0.575175 cumulative IPC: 0.455455 (Simulation time: 0 hr 42 min 45 sec) 
select_counter is 735
Heartbeat CPU 0 instructions: 108000000 cycles: 220668719 heartbeat IPC: 0.576138 cumulative IPC: 0.45643 (Simulation time: 0 hr 42 min 57 sec) 
select_counter is 708
Heartbeat CPU 0 instructions: 109000001 cycles: 222341627 heartbeat IPC: 0.597762 cumulative IPC: 0.457523 (Simulation time: 0 hr 43 min 9 sec) 
select_counter is 695
Heartbeat CPU 0 instructions: 110000003 cycles: 224035723 heartbeat IPC: 0.590286 cumulative IPC: 0.458554 (Simulation time: 0 hr 43 min 21 sec) 
select_counter is 674
Finished CPU 0 instructions: 100000000 cycles: 218076756 cummulative IPC: 0.458554 (Simulation time: 0 hr 43 min 21 sec) 

ChampSim completed all CPUs

Region of Interest Statistics

CPU 0 cummulative IPC: 0.458554 instructions: 100000000 cycles: 218076756
LLC TOTAL     ACCESS:    1166697  HIT:     326792  MISS:     839905
LLC LOAD      ACCESS:      25029  HIT:       1398  MISS:      23631
LLC RFO       ACCESS:     264086  HIT:      15818  MISS:     248268
LLC PREFETCH  ACCESS:     611473  HIT:     126173  MISS:     485300
LLC WRITEBACK ACCESS:     266109  HIT:     183403  MISS:      82706
Ship samples: 
18, 45, 95, 111, 142, 171, 199, 244, 280, 315, 351, 358, 410, 433, 475, 501, 515, 558, 596, 621, 642, 677, 713, 767, 795, 803, 836, 895, 900, 954, 984, 1022, 1046, 1073, 1099, 1135, 1153, 1205, 1233, 1262, 1298, 1334, 1361, 1385, 1422, 1452, 1474, 1517, 1562, 1578, 1610, 1633, 1670, 1712, 1753, 1772, 1807, 1840, 1879, 1908, 1950, 1980, 1993, 2047, 
Lime duel samples: 
4, 51, 79, 124, 137, 191, 205, 227, 269, 303, 350, 362, 399, 442, 451, 502, 526, 549, 607, 631, 660, 699, 719, 765, 772, 829, 837, 883, 926, 930, 986, 1000, 1053, 1085, 1101, 1125, 1158, 1204, 1226, 1268, 1292, 1330, 1349, 1396, 1428, 1444, 1495, 1513, 1567, 1595, 1600, 1648, 1695, 1707, 1754, 1789, 1803, 1826, 1856, 1914, 1925, 1952, 1984, 2026, 
Lime samples: 
4, 137, 269, 399, 526, 660, 772, 926, 1053, 1158, 1292, 1428, 1567, 1695, 1803, 1925, 
Insertion Distribution: 
	LOAD 19 0 0 0 0 0 1812 2981 
	RFO 1949 0 0 0 0 0 7905 39070 
	PREF 0 2707 0 0 0 0 23276 93318 
	WRITEBACK 0 0 0 0 0 0 0 41477 
Total Prefetch Downgrades: 1544
