
*** ChampSim Multicore Out-of-Order Simulator ***

Warmup Instructions: 10000000
Simulation Instructions: 100000000
Configuration: 2
Number of CPUs: 1
LLC sets: 2048
LLC ways: 16
Off-chip DRAM Channels: 1 Width: 64-bit Data Rate: 1600 MT/s

CPU 0 runs /datasets/cs240c-wi22-a00-public/data/Assignment2-gz/soplex_205B.trace.gz
CPU 0 L1D next line prefetcher
CPU 0 L2C IP-based stride prefetcher
Heartbeat CPU 0 instructions: 1000000 cycles: 395620 heartbeat IPC: 2.52768 cumulative IPC: 2.52768 (Simulation time: 0 hr 0 min 19 sec) 
select_counter is 1022
Heartbeat CPU 0 instructions: 2000002 cycles: 923794 heartbeat IPC: 1.89332 cumulative IPC: 2.16499 (Simulation time: 0 hr 0 min 39 sec) 
select_counter is 1042
Heartbeat CPU 0 instructions: 3000000 cycles: 1395792 heartbeat IPC: 2.11865 cumulative IPC: 2.14932 (Simulation time: 0 hr 1 min 6 sec) 
select_counter is 834
Heartbeat CPU 0 instructions: 4000000 cycles: 1757046 heartbeat IPC: 2.76814 cumulative IPC: 2.27655 (Simulation time: 0 hr 1 min 27 sec) 
select_counter is 1007
Heartbeat CPU 0 instructions: 5000003 cycles: 2200546 heartbeat IPC: 2.2548 cumulative IPC: 2.27216 (Simulation time: 0 hr 1 min 49 sec) 
select_counter is 1222
Heartbeat CPU 0 instructions: 6000003 cycles: 2620765 heartbeat IPC: 2.37971 cumulative IPC: 2.28941 (Simulation time: 0 hr 2 min 15 sec) 
select_counter is 2047
Heartbeat CPU 0 instructions: 7000000 cycles: 3005200 heartbeat IPC: 2.60121 cumulative IPC: 2.3293 (Simulation time: 0 hr 2 min 34 sec) 
select_counter is 2047
Heartbeat CPU 0 instructions: 8000000 cycles: 3399052 heartbeat IPC: 2.53902 cumulative IPC: 2.3536 (Simulation time: 0 hr 2 min 52 sec) 
select_counter is 2044
Heartbeat CPU 0 instructions: 9000003 cycles: 3923867 heartbeat IPC: 1.90544 cumulative IPC: 2.29366 (Simulation time: 0 hr 3 min 13 sec) 
select_counter is 1276
Heartbeat CPU 0 instructions: 10000000 cycles: 4409297 heartbeat IPC: 2.06002 cumulative IPC: 2.26794 (Simulation time: 0 hr 3 min 39 sec) 
select_counter is 1062

Warmup complete CPU 0 instructions: 10000004 cycles: 4409299 (Simulation time: 0 hr 3 min 39 sec) 

Heartbeat CPU 0 instructions: 11000001 cycles: 7093524 heartbeat IPC: 0.372547 cumulative IPC: 0.372546 (Simulation time: 0 hr 4 min 9 sec) 
select_counter is 1074
Heartbeat CPU 0 instructions: 12000000 cycles: 9337963 heartbeat IPC: 0.445545 cumulative IPC: 0.405789 (Simulation time: 0 hr 4 min 41 sec) 
select_counter is 1109
Heartbeat CPU 0 instructions: 13000000 cycles: 13027158 heartbeat IPC: 0.271062 cumulative IPC: 0.348114 (Simulation time: 0 hr 5 min 17 sec) 
select_counter is 2046
Heartbeat CPU 0 instructions: 14000003 cycles: 14364086 heartbeat IPC: 0.747986 cumulative IPC: 0.401817 (Simulation time: 0 hr 5 min 34 sec) 
select_counter is 2047
Heartbeat CPU 0 instructions: 15000000 cycles: 16143717 heartbeat IPC: 0.561913 cumulative IPC: 0.426097 (Simulation time: 0 hr 5 min 55 sec) 
select_counter is 2031
Heartbeat CPU 0 instructions: 16000000 cycles: 19560911 heartbeat IPC: 0.292638 cumulative IPC: 0.395997 (Simulation time: 0 hr 6 min 26 sec) 
select_counter is 1229
Heartbeat CPU 0 instructions: 17000001 cycles: 23186892 heartbeat IPC: 0.275788 cumulative IPC: 0.372785 (Simulation time: 0 hr 7 min 4 sec) 
select_counter is 760
Heartbeat CPU 0 instructions: 18000000 cycles: 29863376 heartbeat IPC: 0.149779 cumulative IPC: 0.314291 (Simulation time: 0 hr 7 min 40 sec) 
select_counter is 1462
Heartbeat CPU 0 instructions: 19000001 cycles: 34421361 heartbeat IPC: 0.219395 cumulative IPC: 0.299879 (Simulation time: 0 hr 8 min 18 sec) 
select_counter is 1708
Heartbeat CPU 0 instructions: 20000000 cycles: 36651302 heartbeat IPC: 0.448442 cumulative IPC: 0.310154 (Simulation time: 0 hr 8 min 51 sec) 
select_counter is 2043
Heartbeat CPU 0 instructions: 21000001 cycles: 41294389 heartbeat IPC: 0.215374 cumulative IPC: 0.298223 (Simulation time: 0 hr 9 min 27 sec) 
select_counter is 2030
Heartbeat CPU 0 instructions: 22000001 cycles: 45464017 heartbeat IPC: 0.23983 cumulative IPC: 0.292293 (Simulation time: 0 hr 9 min 59 sec) 
select_counter is 2047
Heartbeat CPU 0 instructions: 23000002 cycles: 48688267 heartbeat IPC: 0.31015 cumulative IPC: 0.293593 (Simulation time: 0 hr 10 min 30 sec) 
select_counter is 2043
Heartbeat CPU 0 instructions: 24000000 cycles: 52515279 heartbeat IPC: 0.2613 cumulative IPC: 0.291024 (Simulation time: 0 hr 11 min 6 sec) 
select_counter is 1995
Heartbeat CPU 0 instructions: 25000000 cycles: 56424634 heartbeat IPC: 0.255797 cumulative IPC: 0.288376 (Simulation time: 0 hr 11 min 32 sec) 
select_counter is 1943
Heartbeat CPU 0 instructions: 26000002 cycles: 60190290 heartbeat IPC: 0.265559 cumulative IPC: 0.286836 (Simulation time: 0 hr 12 min 5 sec) 
select_counter is 1918
Heartbeat CPU 0 instructions: 27000000 cycles: 62772663 heartbeat IPC: 0.38724 cumulative IPC: 0.291279 (Simulation time: 0 hr 12 min 32 sec) 
select_counter is 1860
Heartbeat CPU 0 instructions: 28000000 cycles: 66430999 heartbeat IPC: 0.273348 cumulative IPC: 0.290221 (Simulation time: 0 hr 13 min 7 sec) 
select_counter is 1893
Heartbeat CPU 0 instructions: 29000000 cycles: 68467696 heartbeat IPC: 0.490991 cumulative IPC: 0.296604 (Simulation time: 0 hr 13 min 36 sec) 
select_counter is 2046
Heartbeat CPU 0 instructions: 30000003 cycles: 69382459 heartbeat IPC: 1.09318 cumulative IPC: 0.307819 (Simulation time: 0 hr 13 min 57 sec) 
select_counter is 2029
Heartbeat CPU 0 instructions: 31000003 cycles: 70715482 heartbeat IPC: 0.750175 cumulative IPC: 0.316713 (Simulation time: 0 hr 14 min 22 sec) 
select_counter is 2046
Heartbeat CPU 0 instructions: 32000000 cycles: 73864140 heartbeat IPC: 0.317595 cumulative IPC: 0.316753 (Simulation time: 0 hr 14 min 58 sec) 
select_counter is 2047
Heartbeat CPU 0 instructions: 33000000 cycles: 76869195 heartbeat IPC: 0.332773 cumulative IPC: 0.317417 (Simulation time: 0 hr 15 min 33 sec) 
select_counter is 1559
Heartbeat CPU 0 instructions: 34000002 cycles: 78599144 heartbeat IPC: 0.578053 cumulative IPC: 0.323494 (Simulation time: 0 hr 16 min 5 sec) 
select_counter is 1602
Heartbeat CPU 0 instructions: 35000003 cycles: 81312150 heartbeat IPC: 0.368595 cumulative IPC: 0.325085 (Simulation time: 0 hr 16 min 31 sec) 
select_counter is 1235
Heartbeat CPU 0 instructions: 36000000 cycles: 83936393 heartbeat IPC: 0.381061 cumulative IPC: 0.326933 (Simulation time: 0 hr 17 min 4 sec) 
select_counter is 548
Heartbeat CPU 0 instructions: 37000000 cycles: 87934804 heartbeat IPC: 0.250099 cumulative IPC: 0.323254 (Simulation time: 0 hr 17 min 38 sec) 
select_counter is 24
Heartbeat CPU 0 instructions: 38000002 cycles: 89272761 heartbeat IPC: 0.74741 cumulative IPC: 0.329942 (Simulation time: 0 hr 17 min 56 sec) 
select_counter is 9
Heartbeat CPU 0 instructions: 39000003 cycles: 91271627 heartbeat IPC: 0.500284 cumulative IPC: 0.333862 (Simulation time: 0 hr 18 min 16 sec) 
select_counter is 2016
Heartbeat CPU 0 instructions: 40000000 cycles: 94708336 heartbeat IPC: 0.290975 cumulative IPC: 0.332229 (Simulation time: 0 hr 18 min 54 sec) 
select_counter is 1628
Heartbeat CPU 0 instructions: 41000000 cycles: 98052867 heartbeat IPC: 0.298996 cumulative IPC: 0.331042 (Simulation time: 0 hr 19 min 27 sec) 
select_counter is 1210
Heartbeat CPU 0 instructions: 42000001 cycles: 99905757 heartbeat IPC: 0.539698 cumulative IPC: 0.335091 (Simulation time: 0 hr 19 min 54 sec) 
select_counter is 1092
Heartbeat CPU 0 instructions: 43000001 cycles: 103542944 heartbeat IPC: 0.274938 cumulative IPC: 0.332884 (Simulation time: 0 hr 20 min 29 sec) 
select_counter is 665
Heartbeat CPU 0 instructions: 44000000 cycles: 105990634 heartbeat IPC: 0.408548 cumulative IPC: 0.334707 (Simulation time: 0 hr 20 min 52 sec) 
select_counter is 421
Heartbeat CPU 0 instructions: 45000001 cycles: 107314965 heartbeat IPC: 0.755099 cumulative IPC: 0.340117 (Simulation time: 0 hr 21 min 10 sec) 
select_counter is 380
Heartbeat CPU 0 instructions: 46000002 cycles: 110144720 heartbeat IPC: 0.353388 cumulative IPC: 0.340472 (Simulation time: 0 hr 21 min 40 sec) 
select_counter is 347
Heartbeat CPU 0 instructions: 47000000 cycles: 113082528 heartbeat IPC: 0.340389 cumulative IPC: 0.34047 (Simulation time: 0 hr 22 min 14 sec) 
select_counter is 239
Heartbeat CPU 0 instructions: 48000000 cycles: 115898004 heartbeat IPC: 0.35518 cumulative IPC: 0.340842 (Simulation time: 0 hr 22 min 46 sec) 
select_counter is 89
Heartbeat CPU 0 instructions: 49000001 cycles: 117831051 heartbeat IPC: 0.517318 cumulative IPC: 0.343849 (Simulation time: 0 hr 23 min 12 sec) 
select_counter is 3
Heartbeat CPU 0 instructions: 50000000 cycles: 121163450 heartbeat IPC: 0.300084 cumulative IPC: 0.3426 (Simulation time: 0 hr 23 min 47 sec) 
select_counter is 1317
Heartbeat CPU 0 instructions: 51000003 cycles: 123635778 heartbeat IPC: 0.404478 cumulative IPC: 0.343883 (Simulation time: 0 hr 24 min 11 sec) 
select_counter is 1002
Heartbeat CPU 0 instructions: 52000000 cycles: 124926080 heartbeat IPC: 0.77501 cumulative IPC: 0.348499 (Simulation time: 0 hr 24 min 29 sec) 
select_counter is 911
Heartbeat CPU 0 instructions: 53000003 cycles: 127748471 heartbeat IPC: 0.354311 cumulative IPC: 0.348632 (Simulation time: 0 hr 24 min 59 sec) 
select_counter is 803
Heartbeat CPU 0 instructions: 54000000 cycles: 131088021 heartbeat IPC: 0.299441 cumulative IPC: 0.347335 (Simulation time: 0 hr 25 min 37 sec) 
select_counter is 907
Heartbeat CPU 0 instructions: 55000001 cycles: 133949195 heartbeat IPC: 0.349507 cumulative IPC: 0.347383 (Simulation time: 0 hr 26 min 14 sec) 
select_counter is 699
Heartbeat CPU 0 instructions: 56000000 cycles: 135722215 heartbeat IPC: 0.564009 cumulative IPC: 0.350308 (Simulation time: 0 hr 26 min 41 sec) 
select_counter is 665
Heartbeat CPU 0 instructions: 57000000 cycles: 139081636 heartbeat IPC: 0.29767 cumulative IPC: 0.348995 (Simulation time: 0 hr 27 min 15 sec) 
select_counter is 468
Heartbeat CPU 0 instructions: 58000000 cycles: 141391904 heartbeat IPC: 0.43285 cumulative IPC: 0.350409 (Simulation time: 0 hr 27 min 38 sec) 
select_counter is 508
Heartbeat CPU 0 instructions: 59000001 cycles: 142688031 heartbeat IPC: 0.77153 cumulative IPC: 0.354357 (Simulation time: 0 hr 28 min 0 sec) 
select_counter is 549
Heartbeat CPU 0 instructions: 60000000 cycles: 145516211 heartbeat IPC: 0.353584 cumulative IPC: 0.354341 (Simulation time: 0 hr 28 min 31 sec) 
select_counter is 605
Heartbeat CPU 0 instructions: 61000003 cycles: 148581876 heartbeat IPC: 0.326194 cumulative IPC: 0.353743 (Simulation time: 0 hr 29 min 3 sec) 
select_counter is 512
Heartbeat CPU 0 instructions: 62000002 cycles: 151615081 heartbeat IPC: 0.329684 cumulative IPC: 0.353247 (Simulation time: 0 hr 29 min 38 sec) 
select_counter is 384
Heartbeat CPU 0 instructions: 63000001 cycles: 153182935 heartbeat IPC: 0.637814 cumulative IPC: 0.356246 (Simulation time: 0 hr 30 min 1 sec) 
select_counter is 260
Heartbeat CPU 0 instructions: 64000000 cycles: 156886349 heartbeat IPC: 0.270021 cumulative IPC: 0.354152 (Simulation time: 0 hr 30 min 37 sec) 
select_counter is 1804
Heartbeat CPU 0 instructions: 65000001 cycles: 158770215 heartbeat IPC: 0.530824 cumulative IPC: 0.356308 (Simulation time: 0 hr 30 min 58 sec) 
select_counter is 1693
Heartbeat CPU 0 instructions: 66000000 cycles: 160045654 heartbeat IPC: 0.784043 cumulative IPC: 0.359813 (Simulation time: 0 hr 31 min 20 sec) 
select_counter is 1662
Heartbeat CPU 0 instructions: 67000003 cycles: 162925217 heartbeat IPC: 0.347276 cumulative IPC: 0.359585 (Simulation time: 0 hr 31 min 49 sec) 
select_counter is 1651
Heartbeat CPU 0 instructions: 68000000 cycles: 166398140 heartbeat IPC: 0.287941 cumulative IPC: 0.358049 (Simulation time: 0 hr 32 min 22 sec) 
select_counter is 1424
Heartbeat CPU 0 instructions: 69000001 cycles: 169123758 heartbeat IPC: 0.36689 cumulative IPC: 0.358196 (Simulation time: 0 hr 32 min 55 sec) 
select_counter is 1508
Heartbeat CPU 0 instructions: 70000000 cycles: 171003634 heartbeat IPC: 0.531949 cumulative IPC: 0.360156 (Simulation time: 0 hr 33 min 25 sec) 
select_counter is 1453
Heartbeat CPU 0 instructions: 71000001 cycles: 174481184 heartbeat IPC: 0.287559 cumulative IPC: 0.358672 (Simulation time: 0 hr 34 min 0 sec) 
select_counter is 985
Heartbeat CPU 0 instructions: 72000000 cycles: 176788421 heartbeat IPC: 0.433418 cumulative IPC: 0.359672 (Simulation time: 0 hr 34 min 28 sec) 
select_counter is 815
Heartbeat CPU 0 instructions: 73000000 cycles: 178092022 heartbeat IPC: 0.767106 cumulative IPC: 0.36273 (Simulation time: 0 hr 34 min 44 sec) 
select_counter is 757
Heartbeat CPU 0 instructions: 74000001 cycles: 180916011 heartbeat IPC: 0.354109 cumulative IPC: 0.362592 (Simulation time: 0 hr 35 min 8 sec) 
select_counter is 750
Heartbeat CPU 0 instructions: 75000000 cycles: 184176614 heartbeat IPC: 0.306691 cumulative IPC: 0.361578 (Simulation time: 0 hr 35 min 42 sec) 
select_counter is 1048
Heartbeat CPU 0 instructions: 76000000 cycles: 187193335 heartbeat IPC: 0.331486 cumulative IPC: 0.361082 (Simulation time: 0 hr 36 min 9 sec) 
select_counter is 875
Heartbeat CPU 0 instructions: 77000000 cycles: 188750064 heartbeat IPC: 0.642373 cumulative IPC: 0.363457 (Simulation time: 0 hr 36 min 32 sec) 
select_counter is 729
Heartbeat CPU 0 instructions: 78000002 cycles: 192564357 heartbeat IPC: 0.262172 cumulative IPC: 0.361404 (Simulation time: 0 hr 37 min 4 sec) 
select_counter is 485
Heartbeat CPU 0 instructions: 79000002 cycles: 194446880 heartbeat IPC: 0.531202 cumulative IPC: 0.363086 (Simulation time: 0 hr 37 min 28 sec) 
select_counter is 509
Heartbeat CPU 0 instructions: 80000000 cycles: 195763070 heartbeat IPC: 0.759767 cumulative IPC: 0.365815 (Simulation time: 0 hr 37 min 48 sec) 
select_counter is 558
Heartbeat CPU 0 instructions: 81000000 cycles: 198593385 heartbeat IPC: 0.353318 cumulative IPC: 0.365632 (Simulation time: 0 hr 38 min 11 sec) 
select_counter is 557
Heartbeat CPU 0 instructions: 82000000 cycles: 201719531 heartbeat IPC: 0.319883 cumulative IPC: 0.364908 (Simulation time: 0 hr 38 min 32 sec) 
select_counter is 629
Heartbeat CPU 0 instructions: 83000000 cycles: 204797874 heartbeat IPC: 0.32485 cumulative IPC: 0.364292 (Simulation time: 0 hr 38 min 51 sec) 
select_counter is 369
Heartbeat CPU 0 instructions: 84000000 cycles: 206452302 heartbeat IPC: 0.604438 cumulative IPC: 0.366259 (Simulation time: 0 hr 39 min 8 sec) 
select_counter is 159
Heartbeat CPU 0 instructions: 85000000 cycles: 210365699 heartbeat IPC: 0.255532 cumulative IPC: 0.364155 (Simulation time: 0 hr 39 min 31 sec) 
select_counter is 1630
Heartbeat CPU 0 instructions: 86000002 cycles: 211793430 heartbeat IPC: 0.700413 cumulative IPC: 0.36647 (Simulation time: 0 hr 39 min 41 sec) 
select_counter is 1567
Heartbeat CPU 0 instructions: 87000002 cycles: 213065838 heartbeat IPC: 0.785911 cumulative IPC: 0.369027 (Simulation time: 0 hr 39 min 53 sec) 
select_counter is 1528
Heartbeat CPU 0 instructions: 88000000 cycles: 215981550 heartbeat IPC: 0.342969 cumulative IPC: 0.368668 (Simulation time: 0 hr 40 min 12 sec) 
select_counter is 1496
Heartbeat CPU 0 instructions: 89000003 cycles: 219764858 heartbeat IPC: 0.26432 cumulative IPC: 0.366835 (Simulation time: 0 hr 40 min 34 sec) 
select_counter is 1251
Heartbeat CPU 0 instructions: 90000001 cycles: 222800267 heartbeat IPC: 0.329444 cumulative IPC: 0.366316 (Simulation time: 0 hr 40 min 51 sec) 
select_counter is 1158
Heartbeat CPU 0 instructions: 91000003 cycles: 224700690 heartbeat IPC: 0.5262 cumulative IPC: 0.367695 (Simulation time: 0 hr 41 min 5 sec) 
select_counter is 912
Heartbeat CPU 0 instructions: 92000000 cycles: 228657829 heartbeat IPC: 0.252707 cumulative IPC: 0.365666 (Simulation time: 0 hr 41 min 23 sec) 
select_counter is 638
Heartbeat CPU 0 instructions: 93000000 cycles: 230001197 heartbeat IPC: 0.744398 cumulative IPC: 0.367921 (Simulation time: 0 hr 41 min 32 sec) 
select_counter is 557
Heartbeat CPU 0 instructions: 94000000 cycles: 231414964 heartbeat IPC: 0.70733 cumulative IPC: 0.370035 (Simulation time: 0 hr 41 min 43 sec) 
select_counter is 563
Heartbeat CPU 0 instructions: 95000002 cycles: 234249707 heartbeat IPC: 0.352766 cumulative IPC: 0.369822 (Simulation time: 0 hr 41 min 58 sec) 
select_counter is 658
Heartbeat CPU 0 instructions: 96000000 cycles: 237166572 heartbeat IPC: 0.342833 cumulative IPC: 0.369484 (Simulation time: 0 hr 42 min 15 sec) 
select_counter is 794
Heartbeat CPU 0 instructions: 97000003 cycles: 239571681 heartbeat IPC: 0.415783 cumulative IPC: 0.369957 (Simulation time: 0 hr 42 min 29 sec) 
select_counter is 640
Heartbeat CPU 0 instructions: 98000003 cycles: 241806772 heartbeat IPC: 0.447409 cumulative IPC: 0.370686 (Simulation time: 0 hr 42 min 44 sec) 
select_counter is 384
Heartbeat CPU 0 instructions: 99000000 cycles: 245234671 heartbeat IPC: 0.291723 cumulative IPC: 0.369562 (Simulation time: 0 hr 42 min 57 sec) 
select_counter is 290
Heartbeat CPU 0 instructions: 100000000 cycles: 246543900 heartbeat IPC: 0.763808 cumulative IPC: 0.371694 (Simulation time: 0 hr 43 min 6 sec) 
select_counter is 257
Heartbeat CPU 0 instructions: 101000003 cycles: 248472946 heartbeat IPC: 0.518393 cumulative IPC: 0.372854 (Simulation time: 0 hr 43 min 16 sec) 
select_counter is 246
Heartbeat CPU 0 instructions: 102000002 cycles: 251516144 heartbeat IPC: 0.328601 cumulative IPC: 0.372309 (Simulation time: 0 hr 43 min 27 sec) 
select_counter is 246
Heartbeat CPU 0 instructions: 103000000 cycles: 253688990 heartbeat IPC: 0.460225 cumulative IPC: 0.373075 (Simulation time: 0 hr 43 min 37 sec) 
select_counter is 370
Heartbeat CPU 0 instructions: 104000000 cycles: 262710333 heartbeat IPC: 0.110848 cumulative IPC: 0.363916 (Simulation time: 0 hr 43 min 48 sec) 
select_counter is 655
Heartbeat CPU 0 instructions: 105000000 cycles: 264930223 heartbeat IPC: 0.450473 cumulative IPC: 0.364654 (Simulation time: 0 hr 43 min 56 sec) 
select_counter is 391
Heartbeat CPU 0 instructions: 106000002 cycles: 268866312 heartbeat IPC: 0.25406 cumulative IPC: 0.363008 (Simulation time: 0 hr 44 min 5 sec) 
select_counter is 459
Heartbeat CPU 0 instructions: 107000003 cycles: 273253233 heartbeat IPC: 0.227951 cumulative IPC: 0.360804 (Simulation time: 0 hr 44 min 13 sec) 
select_counter is 446
Heartbeat CPU 0 instructions: 108000000 cycles: 276667499 heartbeat IPC: 0.292888 cumulative IPC: 0.359952 (Simulation time: 0 hr 44 min 20 sec) 
select_counter is 429
Heartbeat CPU 0 instructions: 109000000 cycles: 279956910 heartbeat IPC: 0.304006 cumulative IPC: 0.359285 (Simulation time: 0 hr 44 min 27 sec) 
select_counter is 383
Heartbeat CPU 0 instructions: 110000003 cycles: 283479813 heartbeat IPC: 0.283858 cumulative IPC: 0.358332 (Simulation time: 0 hr 44 min 32 sec) 
select_counter is 241
Finished CPU 0 instructions: 100000003 cycles: 279070515 cummulative IPC: 0.358332 (Simulation time: 0 hr 44 min 32 sec) 

ChampSim completed all CPUs

Region of Interest Statistics

CPU 0 cummulative IPC: 0.358332 instructions: 100000003 cycles: 279070515
LLC TOTAL     ACCESS:    8735109  HIT:    4093685  MISS:    4641424
LLC LOAD      ACCESS:    2233187  HIT:     979457  MISS:    1253730
LLC RFO       ACCESS:     871499  HIT:     363367  MISS:     508132
LLC PREFETCH  ACCESS:    3455590  HIT:    1255559  MISS:    2200031
LLC WRITEBACK ACCESS:    2174833  HIT:    1495302  MISS:     679531
Ship samples: 
15, 52, 69, 102, 141, 171, 211, 253, 287, 296, 341, 366, 390, 420, 462, 508, 540, 545, 598, 619, 653, 693, 716, 743, 786, 806, 842, 882, 915, 949, 989, 1023, 1043, 1060, 1097, 1142, 1157, 1185, 1247, 1255, 1284, 1330, 1369, 1406, 1412, 1468, 1477, 1519, 1561, 1575, 1630, 1656, 1673, 1717, 1729, 1786, 1801, 1845, 1872, 1903, 1926, 1973, 1990, 2019, 
Lime duel samples: 
20, 53, 82, 110, 154, 176, 194, 237, 274, 316, 350, 369, 398, 433, 455, 486, 541, 560, 606, 636, 647, 698, 714, 756, 789, 828, 832, 876, 911, 928, 975, 1009, 1037, 1085, 1103, 1131, 1174, 1195, 1234, 1256, 1297, 1325, 1359, 1380, 1420, 1459, 1473, 1531, 1560, 1587, 1602, 1661, 1667, 1721, 1736, 1788, 1798, 1836, 1858, 1907, 1940, 1963, 1995, 2020, 
Lime samples: 
20, 154, 274, 398, 541, 647, 789, 911, 1037, 1174, 1297, 1420, 1560, 1667, 1798, 1940, 
Insertion Distribution: 
	LOAD 94274 0 0 0 0 0 107973 584361 
	RFO 60898 0 0 0 0 0 38257 179388 
	PREF 0 44452 0 0 0 0 188810 1203461 
	WRITEBACK 0 0 0 0 0 0 0 483173 
Total Prefetch Downgrades: 42208
