
*** ChampSim Multicore Out-of-Order Simulator ***

Warmup Instructions: 10000000
Simulation Instructions: 100000000
Configuration: 2
Number of CPUs: 1
LLC sets: 2048
LLC ways: 16
Off-chip DRAM Channels: 1 Width: 64-bit Data Rate: 1600 MT/s

CPU 0 runs /datasets/cs240c-wi22-a00-public/data/Assignment2-gz/milc_360B.trace.gz
CPU 0 L1D next line prefetcher
CPU 0 L2C IP-based stride prefetcher
Heartbeat CPU 0 instructions: 1000001 cycles: 549511 heartbeat IPC: 1.8198 cumulative IPC: 1.8198 (Simulation time: 0 hr 0 min 25 sec) 
select_counter is 898
Heartbeat CPU 0 instructions: 2000003 cycles: 1099026 heartbeat IPC: 1.81979 cumulative IPC: 1.8198 (Simulation time: 0 hr 0 min 50 sec) 
select_counter is 843
Heartbeat CPU 0 instructions: 3000001 cycles: 1648486 heartbeat IPC: 1.81997 cumulative IPC: 1.81985 (Simulation time: 0 hr 1 min 17 sec) 
select_counter is 720
Heartbeat CPU 0 instructions: 4000000 cycles: 2197959 heartbeat IPC: 1.81992 cumulative IPC: 1.81987 (Simulation time: 0 hr 1 min 41 sec) 
select_counter is 668
Heartbeat CPU 0 instructions: 5000002 cycles: 2747468 heartbeat IPC: 1.81981 cumulative IPC: 1.81986 (Simulation time: 0 hr 2 min 4 sec) 
select_counter is 688
Heartbeat CPU 0 instructions: 6000001 cycles: 3296983 heartbeat IPC: 1.81978 cumulative IPC: 1.81985 (Simulation time: 0 hr 2 min 25 sec) 
select_counter is 676
Heartbeat CPU 0 instructions: 7000000 cycles: 3846462 heartbeat IPC: 1.8199 cumulative IPC: 1.81985 (Simulation time: 0 hr 2 min 46 sec) 
select_counter is 650
Heartbeat CPU 0 instructions: 8000000 cycles: 4395923 heartbeat IPC: 1.81997 cumulative IPC: 1.81987 (Simulation time: 0 hr 3 min 8 sec) 
select_counter is 596
Heartbeat CPU 0 instructions: 9000001 cycles: 4945436 heartbeat IPC: 1.8198 cumulative IPC: 1.81986 (Simulation time: 0 hr 3 min 30 sec) 
select_counter is 520
Heartbeat CPU 0 instructions: 10000001 cycles: 5494911 heartbeat IPC: 1.81992 cumulative IPC: 1.81987 (Simulation time: 0 hr 3 min 54 sec) 
select_counter is 527

Warmup complete CPU 0 instructions: 10000001 cycles: 5494911 (Simulation time: 0 hr 3 min 54 sec) 

Heartbeat CPU 0 instructions: 11000001 cycles: 7191195 heartbeat IPC: 0.589524 cumulative IPC: 0.589524 (Simulation time: 0 hr 4 min 21 sec) 
select_counter is 455
Heartbeat CPU 0 instructions: 12000000 cycles: 8887235 heartbeat IPC: 0.589608 cumulative IPC: 0.589566 (Simulation time: 0 hr 4 min 49 sec) 
select_counter is 384
Heartbeat CPU 0 instructions: 13000001 cycles: 10583085 heartbeat IPC: 0.589675 cumulative IPC: 0.589602 (Simulation time: 0 hr 5 min 18 sec) 
select_counter is 237
Heartbeat CPU 0 instructions: 14000001 cycles: 12281572 heartbeat IPC: 0.588759 cumulative IPC: 0.589391 (Simulation time: 0 hr 5 min 45 sec) 
select_counter is 187
Heartbeat CPU 0 instructions: 15000003 cycles: 13973051 heartbeat IPC: 0.5912 cumulative IPC: 0.589752 (Simulation time: 0 hr 6 min 13 sec) 
select_counter is 158
Heartbeat CPU 0 instructions: 16000000 cycles: 15671324 heartbeat IPC: 0.588832 cumulative IPC: 0.589599 (Simulation time: 0 hr 6 min 37 sec) 
select_counter is 60
Heartbeat CPU 0 instructions: 17000003 cycles: 17373041 heartbeat IPC: 0.587644 cumulative IPC: 0.589319 (Simulation time: 0 hr 7 min 6 sec) 
select_counter is 2037
Heartbeat CPU 0 instructions: 18000002 cycles: 19078967 heartbeat IPC: 0.586191 cumulative IPC: 0.588926 (Simulation time: 0 hr 7 min 30 sec) 
select_counter is 1954
Heartbeat CPU 0 instructions: 19000000 cycles: 20780289 heartbeat IPC: 0.587777 cumulative IPC: 0.588798 (Simulation time: 0 hr 7 min 55 sec) 
select_counter is 1837
Heartbeat CPU 0 instructions: 20000000 cycles: 22478832 heartbeat IPC: 0.58874 cumulative IPC: 0.588792 (Simulation time: 0 hr 8 min 21 sec) 
select_counter is 1738
Heartbeat CPU 0 instructions: 21000002 cycles: 24173716 heartbeat IPC: 0.590012 cumulative IPC: 0.588903 (Simulation time: 0 hr 8 min 49 sec) 
select_counter is 1714
Heartbeat CPU 0 instructions: 22000003 cycles: 25865932 heartbeat IPC: 0.590942 cumulative IPC: 0.589072 (Simulation time: 0 hr 9 min 14 sec) 
select_counter is 1703
Heartbeat CPU 0 instructions: 23000001 cycles: 27564050 heartbeat IPC: 0.588886 cumulative IPC: 0.589058 (Simulation time: 0 hr 9 min 42 sec) 
select_counter is 1677
Heartbeat CPU 0 instructions: 24000000 cycles: 29262442 heartbeat IPC: 0.588792 cumulative IPC: 0.589039 (Simulation time: 0 hr 10 min 8 sec) 
select_counter is 1642
Heartbeat CPU 0 instructions: 25000003 cycles: 30962582 heartbeat IPC: 0.588189 cumulative IPC: 0.588982 (Simulation time: 0 hr 10 min 37 sec) 
select_counter is 1587
Heartbeat CPU 0 instructions: 26000001 cycles: 32660600 heartbeat IPC: 0.588921 cumulative IPC: 0.588978 (Simulation time: 0 hr 11 min 2 sec) 
select_counter is 1524
Heartbeat CPU 0 instructions: 27000001 cycles: 34359086 heartbeat IPC: 0.58876 cumulative IPC: 0.588965 (Simulation time: 0 hr 11 min 31 sec) 
select_counter is 1532
Heartbeat CPU 0 instructions: 28000000 cycles: 36054326 heartbeat IPC: 0.589886 cumulative IPC: 0.589016 (Simulation time: 0 hr 11 min 56 sec) 
select_counter is 1493
Heartbeat CPU 0 instructions: 29000001 cycles: 37751843 heartbeat IPC: 0.589096 cumulative IPC: 0.589021 (Simulation time: 0 hr 12 min 22 sec) 
select_counter is 1438
Heartbeat CPU 0 instructions: 30000000 cycles: 39448567 heartbeat IPC: 0.58937 cumulative IPC: 0.589038 (Simulation time: 0 hr 12 min 49 sec) 
select_counter is 1390
Heartbeat CPU 0 instructions: 31000003 cycles: 41144323 heartbeat IPC: 0.589709 cumulative IPC: 0.58907 (Simulation time: 0 hr 13 min 14 sec) 
select_counter is 1327
Heartbeat CPU 0 instructions: 32000000 cycles: 42840110 heartbeat IPC: 0.589695 cumulative IPC: 0.589098 (Simulation time: 0 hr 13 min 40 sec) 
select_counter is 1244
Heartbeat CPU 0 instructions: 33000000 cycles: 44537363 heartbeat IPC: 0.589187 cumulative IPC: 0.589102 (Simulation time: 0 hr 14 min 7 sec) 
select_counter is 1183
Heartbeat CPU 0 instructions: 34000003 cycles: 46233894 heartbeat IPC: 0.58944 cumulative IPC: 0.589116 (Simulation time: 0 hr 14 min 35 sec) 
select_counter is 1161
Heartbeat CPU 0 instructions: 35000001 cycles: 47934686 heartbeat IPC: 0.58796 cumulative IPC: 0.58907 (Simulation time: 0 hr 14 min 59 sec) 
select_counter is 1082
Heartbeat CPU 0 instructions: 36000000 cycles: 49626952 heartbeat IPC: 0.590923 cumulative IPC: 0.589141 (Simulation time: 0 hr 15 min 28 sec) 
select_counter is 984
Heartbeat CPU 0 instructions: 37000000 cycles: 51320044 heartbeat IPC: 0.590635 cumulative IPC: 0.589196 (Simulation time: 0 hr 15 min 55 sec) 
select_counter is 941
Heartbeat CPU 0 instructions: 38000001 cycles: 53011185 heartbeat IPC: 0.591317 cumulative IPC: 0.589272 (Simulation time: 0 hr 16 min 22 sec) 
select_counter is 914
Heartbeat CPU 0 instructions: 39000000 cycles: 54697374 heartbeat IPC: 0.593053 cumulative IPC: 0.589401 (Simulation time: 0 hr 16 min 51 sec) 
select_counter is 854
Heartbeat CPU 0 instructions: 40000000 cycles: 56395807 heartbeat IPC: 0.588778 cumulative IPC: 0.589381 (Simulation time: 0 hr 17 min 18 sec) 
select_counter is 826
Heartbeat CPU 0 instructions: 41000001 cycles: 58081443 heartbeat IPC: 0.593248 cumulative IPC: 0.589505 (Simulation time: 0 hr 17 min 44 sec) 
select_counter is 762
Heartbeat CPU 0 instructions: 42000001 cycles: 59772152 heartbeat IPC: 0.591468 cumulative IPC: 0.589566 (Simulation time: 0 hr 18 min 10 sec) 
select_counter is 708
Heartbeat CPU 0 instructions: 43000000 cycles: 61465678 heartbeat IPC: 0.590483 cumulative IPC: 0.589593 (Simulation time: 0 hr 18 min 38 sec) 
select_counter is 649
Heartbeat CPU 0 instructions: 44000000 cycles: 63426268 heartbeat IPC: 0.510051 cumulative IPC: 0.586901 (Simulation time: 0 hr 19 min 7 sec) 
select_counter is 256
Heartbeat CPU 0 instructions: 45000002 cycles: 65620520 heartbeat IPC: 0.455737 cumulative IPC: 0.582115 (Simulation time: 0 hr 19 min 41 sec) 
select_counter is 120
Heartbeat CPU 0 instructions: 46000000 cycles: 67842129 heartbeat IPC: 0.450123 cumulative IPC: 0.577411 (Simulation time: 0 hr 20 min 15 sec) 
select_counter is 118
Heartbeat CPU 0 instructions: 47000002 cycles: 70100177 heartbeat IPC: 0.442861 cumulative IPC: 0.572709 (Simulation time: 0 hr 20 min 47 sec) 
select_counter is 103
Heartbeat CPU 0 instructions: 48000000 cycles: 72313943 heartbeat IPC: 0.451718 cumulative IPC: 0.5687 (Simulation time: 0 hr 21 min 17 sec) 
select_counter is 104
Heartbeat CPU 0 instructions: 49000003 cycles: 74495517 heartbeat IPC: 0.458386 cumulative IPC: 0.565212 (Simulation time: 0 hr 21 min 47 sec) 
select_counter is 93
Heartbeat CPU 0 instructions: 50000002 cycles: 76473225 heartbeat IPC: 0.505635 cumulative IPC: 0.563552 (Simulation time: 0 hr 22 min 17 sec) 
select_counter is 74
Heartbeat CPU 0 instructions: 51000002 cycles: 77584597 heartbeat IPC: 0.899789 cumulative IPC: 0.568736 (Simulation time: 0 hr 22 min 40 sec) 
select_counter is 73
Heartbeat CPU 0 instructions: 52000000 cycles: 79458233 heartbeat IPC: 0.533721 cumulative IPC: 0.567849 (Simulation time: 0 hr 23 min 5 sec) 
select_counter is 109
Heartbeat CPU 0 instructions: 53000002 cycles: 81699184 heartbeat IPC: 0.44624 cumulative IPC: 0.564273 (Simulation time: 0 hr 23 min 30 sec) 
select_counter is 2026
Heartbeat CPU 0 instructions: 54000003 cycles: 83926671 heartbeat IPC: 0.448937 cumulative IPC: 0.560997 (Simulation time: 0 hr 23 min 57 sec) 
select_counter is 1915
Heartbeat CPU 0 instructions: 55000003 cycles: 86162896 heartbeat IPC: 0.447182 cumulative IPC: 0.557842 (Simulation time: 0 hr 24 min 22 sec) 
select_counter is 1773
Heartbeat CPU 0 instructions: 56000000 cycles: 88390071 heartbeat IPC: 0.448998 cumulative IPC: 0.554918 (Simulation time: 0 hr 24 min 51 sec) 
select_counter is 1584
Heartbeat CPU 0 instructions: 57000000 cycles: 90623124 heartbeat IPC: 0.447817 cumulative IPC: 0.552108 (Simulation time: 0 hr 25 min 14 sec) 
select_counter is 1524
Heartbeat CPU 0 instructions: 58000000 cycles: 92848798 heartbeat IPC: 0.449302 cumulative IPC: 0.549489 (Simulation time: 0 hr 25 min 42 sec) 
select_counter is 1394
Heartbeat CPU 0 instructions: 59000001 cycles: 95074866 heartbeat IPC: 0.449223 cumulative IPC: 0.546997 (Simulation time: 0 hr 26 min 9 sec) 
select_counter is 1360
Heartbeat CPU 0 instructions: 60000000 cycles: 97304476 heartbeat IPC: 0.448508 cumulative IPC: 0.544606 (Simulation time: 0 hr 26 min 35 sec) 
select_counter is 1275
Heartbeat CPU 0 instructions: 61000000 cycles: 99532998 heartbeat IPC: 0.448728 cumulative IPC: 0.542333 (Simulation time: 0 hr 27 min 3 sec) 
select_counter is 1099
Heartbeat CPU 0 instructions: 62000003 cycles: 101760522 heartbeat IPC: 0.44893 cumulative IPC: 0.540172 (Simulation time: 0 hr 27 min 33 sec) 
select_counter is 1011
Heartbeat CPU 0 instructions: 63000003 cycles: 103987899 heartbeat IPC: 0.448959 cumulative IPC: 0.538109 (Simulation time: 0 hr 27 min 59 sec) 
select_counter is 829
Heartbeat CPU 0 instructions: 64000000 cycles: 106217035 heartbeat IPC: 0.448603 cumulative IPC: 0.536128 (Simulation time: 0 hr 28 min 23 sec) 
select_counter is 719
Heartbeat CPU 0 instructions: 65000001 cycles: 108450318 heartbeat IPC: 0.447772 cumulative IPC: 0.534212 (Simulation time: 0 hr 28 min 49 sec) 
select_counter is 600
Heartbeat CPU 0 instructions: 66000001 cycles: 110682376 heartbeat IPC: 0.448017 cumulative IPC: 0.532383 (Simulation time: 0 hr 29 min 16 sec) 
select_counter is 497
Heartbeat CPU 0 instructions: 67000002 cycles: 112914987 heartbeat IPC: 0.447907 cumulative IPC: 0.530627 (Simulation time: 0 hr 29 min 41 sec) 
select_counter is 360
Heartbeat CPU 0 instructions: 68000000 cycles: 115146920 heartbeat IPC: 0.448041 cumulative IPC: 0.528946 (Simulation time: 0 hr 30 min 6 sec) 
select_counter is 277
Heartbeat CPU 0 instructions: 69000001 cycles: 117378606 heartbeat IPC: 0.448092 cumulative IPC: 0.527333 (Simulation time: 0 hr 30 min 30 sec) 
select_counter is 197
Heartbeat CPU 0 instructions: 70000000 cycles: 119608025 heartbeat IPC: 0.448547 cumulative IPC: 0.525794 (Simulation time: 0 hr 30 min 54 sec) 
select_counter is 76
Heartbeat CPU 0 instructions: 71000000 cycles: 121830498 heartbeat IPC: 0.449949 cumulative IPC: 0.524345 (Simulation time: 0 hr 31 min 20 sec) 
select_counter is 1970
Heartbeat CPU 0 instructions: 72000000 cycles: 124057213 heartbeat IPC: 0.449092 cumulative IPC: 0.522932 (Simulation time: 0 hr 31 min 44 sec) 
select_counter is 1844
Heartbeat CPU 0 instructions: 73000001 cycles: 126277404 heartbeat IPC: 0.450412 cumulative IPC: 0.521599 (Simulation time: 0 hr 32 min 14 sec) 
select_counter is 1681
Heartbeat CPU 0 instructions: 74000002 cycles: 127869118 heartbeat IPC: 0.628254 cumulative IPC: 0.522986 (Simulation time: 0 hr 32 min 42 sec) 
select_counter is 1301
Heartbeat CPU 0 instructions: 75000003 cycles: 129457312 heartbeat IPC: 0.629647 cumulative IPC: 0.524353 (Simulation time: 0 hr 33 min 7 sec) 
select_counter is 744
Heartbeat CPU 0 instructions: 76000000 cycles: 131043547 heartbeat IPC: 0.630422 cumulative IPC: 0.525693 (Simulation time: 0 hr 33 min 31 sec) 
select_counter is 11
Heartbeat CPU 0 instructions: 77000000 cycles: 132616914 heartbeat IPC: 0.63558 cumulative IPC: 0.527053 (Simulation time: 0 hr 33 min 57 sec) 
select_counter is 1378
Heartbeat CPU 0 instructions: 78000000 cycles: 134196893 heartbeat IPC: 0.63292 cumulative IPC: 0.528352 (Simulation time: 0 hr 34 min 26 sec) 
select_counter is 641
Heartbeat CPU 0 instructions: 79000000 cycles: 135793363 heartbeat IPC: 0.626382 cumulative IPC: 0.529553 (Simulation time: 0 hr 34 min 48 sec) 
select_counter is 1975
Heartbeat CPU 0 instructions: 80000000 cycles: 137373246 heartbeat IPC: 0.632958 cumulative IPC: 0.530792 (Simulation time: 0 hr 35 min 11 sec) 
select_counter is 1352
Heartbeat CPU 0 instructions: 81000003 cycles: 138955584 heartbeat IPC: 0.631978 cumulative IPC: 0.531992 (Simulation time: 0 hr 35 min 36 sec) 
select_counter is 640
Heartbeat CPU 0 instructions: 82000003 cycles: 140548582 heartbeat IPC: 0.627747 cumulative IPC: 0.533121 (Simulation time: 0 hr 35 min 59 sec) 
select_counter is 2039
Heartbeat CPU 0 instructions: 83000002 cycles: 142127696 heartbeat IPC: 0.633266 cumulative IPC: 0.534279 (Simulation time: 0 hr 36 min 20 sec) 
select_counter is 1405
Heartbeat CPU 0 instructions: 84000000 cycles: 143709965 heartbeat IPC: 0.632003 cumulative IPC: 0.535398 (Simulation time: 0 hr 36 min 40 sec) 
select_counter is 773
Heartbeat CPU 0 instructions: 85000000 cycles: 145298110 heartbeat IPC: 0.629665 cumulative IPC: 0.536468 (Simulation time: 0 hr 37 min 2 sec) 
select_counter is 67
Heartbeat CPU 0 instructions: 86000000 cycles: 146882406 heartbeat IPC: 0.631195 cumulative IPC: 0.53753 (Simulation time: 0 hr 37 min 24 sec) 
select_counter is 1520
Heartbeat CPU 0 instructions: 87000000 cycles: 148457218 heartbeat IPC: 0.634996 cumulative IPC: 0.538603 (Simulation time: 0 hr 37 min 43 sec) 
select_counter is 880
Heartbeat CPU 0 instructions: 88000000 cycles: 150042488 heartbeat IPC: 0.630807 cumulative IPC: 0.539615 (Simulation time: 0 hr 38 min 2 sec) 
select_counter is 163
Heartbeat CPU 0 instructions: 89000002 cycles: 151622853 heartbeat IPC: 0.632766 cumulative IPC: 0.540622 (Simulation time: 0 hr 38 min 21 sec) 
select_counter is 1542
Heartbeat CPU 0 instructions: 90000002 cycles: 153198603 heartbeat IPC: 0.634618 cumulative IPC: 0.541625 (Simulation time: 0 hr 38 min 39 sec) 
select_counter is 901
Heartbeat CPU 0 instructions: 91000003 cycles: 154775209 heartbeat IPC: 0.634274 cumulative IPC: 0.542603 (Simulation time: 0 hr 38 min 58 sec) 
select_counter is 177
Heartbeat CPU 0 instructions: 92000000 cycles: 156359205 heartbeat IPC: 0.631313 cumulative IPC: 0.543535 (Simulation time: 0 hr 39 min 16 sec) 
select_counter is 1509
Heartbeat CPU 0 instructions: 93000000 cycles: 157932961 heartbeat IPC: 0.635423 cumulative IPC: 0.544483 (Simulation time: 0 hr 39 min 34 sec) 
select_counter is 792
Heartbeat CPU 0 instructions: 94000000 cycles: 159524221 heartbeat IPC: 0.628433 cumulative IPC: 0.545351 (Simulation time: 0 hr 39 min 52 sec) 
select_counter is 146
Heartbeat CPU 0 instructions: 95000000 cycles: 161109911 heartbeat IPC: 0.63064 cumulative IPC: 0.54622 (Simulation time: 0 hr 40 min 8 sec) 
select_counter is 1441
Heartbeat CPU 0 instructions: 96000000 cycles: 162691520 heartbeat IPC: 0.632268 cumulative IPC: 0.547086 (Simulation time: 0 hr 40 min 21 sec) 
select_counter is 703
Heartbeat CPU 0 instructions: 97000002 cycles: 164268126 heartbeat IPC: 0.634275 cumulative IPC: 0.547951 (Simulation time: 0 hr 40 min 35 sec) 
select_counter is 58
Heartbeat CPU 0 instructions: 98000003 cycles: 165843402 heartbeat IPC: 0.63481 cumulative IPC: 0.548805 (Simulation time: 0 hr 40 min 48 sec) 
select_counter is 1472
Heartbeat CPU 0 instructions: 99000000 cycles: 167413563 heartbeat IPC: 0.636875 cumulative IPC: 0.549659 (Simulation time: 0 hr 41 min 1 sec) 
select_counter is 842
Heartbeat CPU 0 instructions: 100000000 cycles: 168989944 heartbeat IPC: 0.634364 cumulative IPC: 0.550475 (Simulation time: 0 hr 41 min 13 sec) 
select_counter is 201
Heartbeat CPU 0 instructions: 101000002 cycles: 170562080 heartbeat IPC: 0.636079 cumulative IPC: 0.551291 (Simulation time: 0 hr 41 min 26 sec) 
select_counter is 1554
Heartbeat CPU 0 instructions: 102000000 cycles: 172137219 heartbeat IPC: 0.634863 cumulative IPC: 0.552081 (Simulation time: 0 hr 41 min 40 sec) 
select_counter is 906
Heartbeat CPU 0 instructions: 103000002 cycles: 173710087 heartbeat IPC: 0.635783 cumulative IPC: 0.552863 (Simulation time: 0 hr 41 min 54 sec) 
select_counter is 225
Heartbeat CPU 0 instructions: 104000000 cycles: 175285803 heartbeat IPC: 0.634631 cumulative IPC: 0.553622 (Simulation time: 0 hr 42 min 7 sec) 
select_counter is 1677
Heartbeat CPU 0 instructions: 105000003 cycles: 176859908 heartbeat IPC: 0.635284 cumulative IPC: 0.554372 (Simulation time: 0 hr 42 min 21 sec) 
select_counter is 997
Heartbeat CPU 0 instructions: 106000002 cycles: 178436092 heartbeat IPC: 0.634443 cumulative IPC: 0.555102 (Simulation time: 0 hr 42 min 33 sec) 
select_counter is 267
Heartbeat CPU 0 instructions: 107000000 cycles: 180012788 heartbeat IPC: 0.634236 cumulative IPC: 0.555817 (Simulation time: 0 hr 42 min 45 sec) 
select_counter is 1678
Heartbeat CPU 0 instructions: 108000000 cycles: 181587109 heartbeat IPC: 0.635194 cumulative IPC: 0.556527 (Simulation time: 0 hr 42 min 56 sec) 
select_counter is 1013
Heartbeat CPU 0 instructions: 109000002 cycles: 183156057 heartbeat IPC: 0.637371 cumulative IPC: 0.557241 (Simulation time: 0 hr 43 min 8 sec) 
select_counter is 315
Heartbeat CPU 0 instructions: 110000000 cycles: 184731568 heartbeat IPC: 0.634713 cumulative IPC: 0.557922 (Simulation time: 0 hr 43 min 21 sec) 
select_counter is 1717
Finished CPU 0 instructions: 100000003 cycles: 179236658 cummulative IPC: 0.557922 (Simulation time: 0 hr 43 min 21 sec) 

ChampSim completed all CPUs

Region of Interest Statistics

CPU 0 cummulative IPC: 0.557922 instructions: 100000003 cycles: 179236658
LLC TOTAL     ACCESS:    3481388  HIT:     331407  MISS:    3149981
LLC LOAD      ACCESS:    1002114  HIT:         25  MISS:    1002089
LLC RFO       ACCESS:     140009  HIT:          0  MISS:     140009
LLC PREFETCH  ACCESS:    1596594  HIT:      15529  MISS:    1581065
LLC WRITEBACK ACCESS:     742671  HIT:     315853  MISS:     426818
Ship samples: 
19, 46, 77, 97, 154, 178, 208, 253, 264, 290, 328, 369, 388, 438, 466, 500, 522, 544, 592, 635, 648, 701, 723, 764, 796, 817, 855, 877, 921, 950, 963, 1022, 1032, 1071, 1113, 1137, 1175, 1211, 1220, 1274, 1309, 1321, 1358, 1383, 1421, 1448, 1498, 1534, 1558, 1586, 1625, 1639, 1684, 1703, 1747, 1790, 1820, 1832, 1870, 1904, 1943, 1981, 1987, 2046, 
Lime duel samples: 
5, 32, 71, 117, 156, 167, 210, 229, 257, 302, 330, 364, 402, 428, 449, 507, 530, 571, 607, 609, 651, 686, 728, 762, 777, 806, 841, 867, 899, 942, 980, 1000, 1054, 1086, 1097, 1146, 1159, 1194, 1233, 1271, 1280, 1323, 1364, 1399, 1413, 1468, 1494, 1511, 1560, 1576, 1616, 1657, 1667, 1720, 1739, 1768, 1809, 1837, 1876, 1889, 1942, 1963, 2006, 2035, 
Lime samples: 
5, 156, 257, 402, 530, 651, 777, 899, 1054, 1159, 1280, 1413, 1560, 1667, 1809, 1942, 
Insertion Distribution: 
	LOAD 0 0 0 0 0 0 147149 421988 
	RFO 0 0 0 0 0 0 21921 54745 
	PREF 0 0 0 0 0 0 118955 839500 
	WRITEBACK 0 0 0 0 0 0 0 324270 
Total Prefetch Downgrades: 14
