
*** ChampSim Multicore Out-of-Order Simulator ***

Warmup Instructions: 10000000
Simulation Instructions: 100000000
Configuration: 2
Number of CPUs: 1
LLC sets: 2048
LLC ways: 16
Off-chip DRAM Channels: 1 Width: 64-bit Data Rate: 1600 MT/s

CPU 0 runs /datasets/cs240c-wi22-a00-public/data/Assignment2-gz/libquantum_1735B.trace.gz
CPU 0 L1D next line prefetcher
CPU 0 L2C IP-based stride prefetcher
Heartbeat CPU 0 instructions: 1000001 cycles: 333341 heartbeat IPC: 2.99993 cumulative IPC: 2.99993 (Simulation time: 0 hr 0 min 14 sec) 
select_counter is 1023
Heartbeat CPU 0 instructions: 2000000 cycles: 666674 heartbeat IPC: 3 cumulative IPC: 2.99997 (Simulation time: 0 hr 0 min 25 sec) 
select_counter is 1023
Heartbeat CPU 0 instructions: 3000000 cycles: 989045 heartbeat IPC: 3.10202 cumulative IPC: 3.03323 (Simulation time: 0 hr 0 min 40 sec) 
select_counter is 1021
Heartbeat CPU 0 instructions: 4000000 cycles: 1290770 heartbeat IPC: 3.31428 cumulative IPC: 3.09893 (Simulation time: 0 hr 0 min 52 sec) 
select_counter is 1026
Heartbeat CPU 0 instructions: 5000001 cycles: 1592495 heartbeat IPC: 3.31428 cumulative IPC: 3.13973 (Simulation time: 0 hr 1 min 5 sec) 
select_counter is 1036
Heartbeat CPU 0 instructions: 6000001 cycles: 1894219 heartbeat IPC: 3.31429 cumulative IPC: 3.16753 (Simulation time: 0 hr 1 min 19 sec) 
select_counter is 1070
Heartbeat CPU 0 instructions: 7000002 cycles: 2195942 heartbeat IPC: 3.3143 cumulative IPC: 3.1877 (Simulation time: 0 hr 1 min 32 sec) 
select_counter is 1089
Heartbeat CPU 0 instructions: 8000000 cycles: 2501897 heartbeat IPC: 3.26845 cumulative IPC: 3.19757 (Simulation time: 0 hr 1 min 44 sec) 
select_counter is 1098
Heartbeat CPU 0 instructions: 9000000 cycles: 2835230 heartbeat IPC: 3 cumulative IPC: 3.17435 (Simulation time: 0 hr 1 min 56 sec) 
select_counter is 1101
Heartbeat CPU 0 instructions: 10000002 cycles: 3168564 heartbeat IPC: 3 cumulative IPC: 3.156 (Simulation time: 0 hr 2 min 8 sec) 
select_counter is 1102

Warmup complete CPU 0 instructions: 10000002 cycles: 3168564 (Simulation time: 0 hr 2 min 8 sec) 

Heartbeat CPU 0 instructions: 11000001 cycles: 4593870 heartbeat IPC: 0.701603 cumulative IPC: 0.701603 (Simulation time: 0 hr 2 min 33 sec) 
select_counter is 1102
Heartbeat CPU 0 instructions: 12000000 cycles: 6018722 heartbeat IPC: 0.701827 cumulative IPC: 0.701715 (Simulation time: 0 hr 2 min 59 sec) 
select_counter is 1101
Heartbeat CPU 0 instructions: 13000001 cycles: 7844625 heartbeat IPC: 0.547675 cumulative IPC: 0.641565 (Simulation time: 0 hr 3 min 22 sec) 
select_counter is 1082
Heartbeat CPU 0 instructions: 14000000 cycles: 10348681 heartbeat IPC: 0.399352 cumulative IPC: 0.557094 (Simulation time: 0 hr 3 min 42 sec) 
select_counter is 1046
Heartbeat CPU 0 instructions: 15000000 cycles: 12839845 heartbeat IPC: 0.401419 cumulative IPC: 0.516994 (Simulation time: 0 hr 4 min 0 sec) 
select_counter is 1039
Heartbeat CPU 0 instructions: 16000000 cycles: 15321979 heartbeat IPC: 0.402879 cumulative IPC: 0.493688 (Simulation time: 0 hr 4 min 18 sec) 
select_counter is 1028
Heartbeat CPU 0 instructions: 17000002 cycles: 17818010 heartbeat IPC: 0.400637 cumulative IPC: 0.477834 (Simulation time: 0 hr 4 min 36 sec) 
select_counter is 1031
Heartbeat CPU 0 instructions: 18000001 cycles: 19994811 heartbeat IPC: 0.459389 cumulative IPC: 0.475448 (Simulation time: 0 hr 4 min 55 sec) 
select_counter is 1025
Heartbeat CPU 0 instructions: 19000000 cycles: 21494392 heartbeat IPC: 0.666852 cumulative IPC: 0.49111 (Simulation time: 0 hr 5 min 16 sec) 
select_counter is 1025
Heartbeat CPU 0 instructions: 20000000 cycles: 22992951 heartbeat IPC: 0.667308 cumulative IPC: 0.504429 (Simulation time: 0 hr 5 min 37 sec) 
select_counter is 766
Heartbeat CPU 0 instructions: 21000001 cycles: 24501591 heartbeat IPC: 0.662849 cumulative IPC: 0.515632 (Simulation time: 0 hr 6 min 0 sec) 
select_counter is 443
Heartbeat CPU 0 instructions: 22000000 cycles: 26001097 heartbeat IPC: 0.666886 cumulative IPC: 0.525566 (Simulation time: 0 hr 6 min 22 sec) 
select_counter is 444
Heartbeat CPU 0 instructions: 23000000 cycles: 28245273 heartbeat IPC: 0.445598 cumulative IPC: 0.518409 (Simulation time: 0 hr 6 min 41 sec) 
select_counter is 426
Heartbeat CPU 0 instructions: 24000000 cycles: 31014989 heartbeat IPC: 0.361048 cumulative IPC: 0.502757 (Simulation time: 0 hr 6 min 58 sec) 
select_counter is 422
Heartbeat CPU 0 instructions: 25000000 cycles: 33776887 heartbeat IPC: 0.36207 cumulative IPC: 0.490063 (Simulation time: 0 hr 7 min 16 sec) 
select_counter is 434
Heartbeat CPU 0 instructions: 26000000 cycles: 36540994 heartbeat IPC: 0.36178 cumulative IPC: 0.479438 (Simulation time: 0 hr 7 min 32 sec) 
select_counter is 449
Heartbeat CPU 0 instructions: 27000001 cycles: 39328126 heartbeat IPC: 0.358792 cumulative IPC: 0.470138 (Simulation time: 0 hr 7 min 50 sec) 
select_counter is 434
Heartbeat CPU 0 instructions: 28000000 cycles: 41360352 heartbeat IPC: 0.492071 cumulative IPC: 0.471305 (Simulation time: 0 hr 8 min 9 sec) 
select_counter is 426
Heartbeat CPU 0 instructions: 29000000 cycles: 42779794 heartbeat IPC: 0.704502 cumulative IPC: 0.479662 (Simulation time: 0 hr 8 min 29 sec) 
select_counter is 459
Heartbeat CPU 0 instructions: 30000001 cycles: 44202043 heartbeat IPC: 0.703112 cumulative IPC: 0.487407 (Simulation time: 0 hr 8 min 50 sec) 
select_counter is 453
Heartbeat CPU 0 instructions: 31000000 cycles: 45623938 heartbeat IPC: 0.703286 cumulative IPC: 0.494637 (Simulation time: 0 hr 9 min 11 sec) 
select_counter is 453
Heartbeat CPU 0 instructions: 32000000 cycles: 47045754 heartbeat IPC: 0.703326 cumulative IPC: 0.501399 (Simulation time: 0 hr 9 min 31 sec) 
select_counter is 453
Heartbeat CPU 0 instructions: 33000002 cycles: 49157312 heartbeat IPC: 0.473585 cumulative IPC: 0.500122 (Simulation time: 0 hr 9 min 49 sec) 
select_counter is 449
Heartbeat CPU 0 instructions: 34000000 cycles: 51464350 heartbeat IPC: 0.433455 cumulative IPC: 0.496938 (Simulation time: 0 hr 10 min 8 sec) 
select_counter is 451
Heartbeat CPU 0 instructions: 35000000 cycles: 53745171 heartbeat IPC: 0.438439 cumulative IPC: 0.4943 (Simulation time: 0 hr 10 min 27 sec) 
select_counter is 438
Heartbeat CPU 0 instructions: 36000000 cycles: 56042035 heartbeat IPC: 0.435376 cumulative IPC: 0.49174 (Simulation time: 0 hr 10 min 47 sec) 
select_counter is 437
Heartbeat CPU 0 instructions: 37000002 cycles: 58353389 heartbeat IPC: 0.432648 cumulative IPC: 0.489265 (Simulation time: 0 hr 11 min 6 sec) 
select_counter is 437
Heartbeat CPU 0 instructions: 38000003 cycles: 60113587 heartbeat IPC: 0.568118 cumulative IPC: 0.491702 (Simulation time: 0 hr 11 min 25 sec) 
select_counter is 438
Heartbeat CPU 0 instructions: 39000000 cycles: 61524993 heartbeat IPC: 0.708511 cumulative IPC: 0.496946 (Simulation time: 0 hr 11 min 46 sec) 
select_counter is 437
Heartbeat CPU 0 instructions: 40000000 cycles: 62937053 heartbeat IPC: 0.708185 cumulative IPC: 0.501937 (Simulation time: 0 hr 12 min 7 sec) 
select_counter is 1984
Heartbeat CPU 0 instructions: 41000000 cycles: 64330273 heartbeat IPC: 0.717762 cumulative IPC: 0.506853 (Simulation time: 0 hr 12 min 27 sec) 
select_counter is 1885
Heartbeat CPU 0 instructions: 42000001 cycles: 65741678 heartbeat IPC: 0.708515 cumulative IPC: 0.511402 (Simulation time: 0 hr 12 min 48 sec) 
select_counter is 1884
Heartbeat CPU 0 instructions: 43000000 cycles: 67814746 heartbeat IPC: 0.482376 cumulative IPC: 0.510471 (Simulation time: 0 hr 13 min 5 sec) 
select_counter is 1858
Heartbeat CPU 0 instructions: 44000000 cycles: 69995008 heartbeat IPC: 0.45866 cumulative IPC: 0.508781 (Simulation time: 0 hr 13 min 23 sec) 
select_counter is 1841
Heartbeat CPU 0 instructions: 45000001 cycles: 72174514 heartbeat IPC: 0.45882 cumulative IPC: 0.507203 (Simulation time: 0 hr 13 min 42 sec) 
select_counter is 1861
Heartbeat CPU 0 instructions: 46000002 cycles: 74343841 heartbeat IPC: 0.460973 cumulative IPC: 0.505794 (Simulation time: 0 hr 13 min 59 sec) 
select_counter is 1872
Heartbeat CPU 0 instructions: 47000000 cycles: 76525644 heartbeat IPC: 0.458336 cumulative IPC: 0.504382 (Simulation time: 0 hr 14 min 17 sec) 
select_counter is 1837
Heartbeat CPU 0 instructions: 48000000 cycles: 78232905 heartbeat IPC: 0.585734 cumulative IPC: 0.506232 (Simulation time: 0 hr 14 min 39 sec) 
select_counter is 1836
Heartbeat CPU 0 instructions: 49000002 cycles: 79721417 heartbeat IPC: 0.671813 cumulative IPC: 0.509452 (Simulation time: 0 hr 15 min 1 sec) 
select_counter is 1838
Heartbeat CPU 0 instructions: 50000001 cycles: 81244004 heartbeat IPC: 0.656776 cumulative IPC: 0.512325 (Simulation time: 0 hr 15 min 22 sec) 
select_counter is 1942
Heartbeat CPU 0 instructions: 51000000 cycles: 82763649 heartbeat IPC: 0.658048 cumulative IPC: 0.515107 (Simulation time: 0 hr 15 min 43 sec) 
select_counter is 2046
Heartbeat CPU 0 instructions: 52000000 cycles: 84283323 heartbeat IPC: 0.658036 cumulative IPC: 0.517785 (Simulation time: 0 hr 16 min 4 sec) 
select_counter is 2046
Heartbeat CPU 0 instructions: 53000002 cycles: 85802317 heartbeat IPC: 0.658332 cumulative IPC: 0.520368 (Simulation time: 0 hr 16 min 26 sec) 
select_counter is 2046
Heartbeat CPU 0 instructions: 54000001 cycles: 87317344 heartbeat IPC: 0.660054 cumulative IPC: 0.522883 (Simulation time: 0 hr 16 min 47 sec) 
select_counter is 2043
Heartbeat CPU 0 instructions: 55000000 cycles: 88836885 heartbeat IPC: 0.658093 cumulative IPC: 0.525282 (Simulation time: 0 hr 17 min 8 sec) 
select_counter is 2046
Heartbeat CPU 0 instructions: 56000000 cycles: 90355340 heartbeat IPC: 0.658564 cumulative IPC: 0.527603 (Simulation time: 0 hr 17 min 28 sec) 
select_counter is 2046
Heartbeat CPU 0 instructions: 57000000 cycles: 91874893 heartbeat IPC: 0.658088 cumulative IPC: 0.529838 (Simulation time: 0 hr 17 min 49 sec) 
select_counter is 2047
Heartbeat CPU 0 instructions: 58000002 cycles: 93394364 heartbeat IPC: 0.658125 cumulative IPC: 0.531999 (Simulation time: 0 hr 18 min 9 sec) 
select_counter is 2047
Heartbeat CPU 0 instructions: 59000001 cycles: 94847935 heartbeat IPC: 0.68796 cumulative IPC: 0.534471 (Simulation time: 0 hr 18 min 29 sec) 
select_counter is 1825
Heartbeat CPU 0 instructions: 60000000 cycles: 96243495 heartbeat IPC: 0.716558 cumulative IPC: 0.537202 (Simulation time: 0 hr 18 min 49 sec) 
select_counter is 1380
Heartbeat CPU 0 instructions: 61000003 cycles: 97763115 heartbeat IPC: 0.658061 cumulative IPC: 0.539143 (Simulation time: 0 hr 19 min 10 sec) 
select_counter is 1380
Heartbeat CPU 0 instructions: 62000002 cycles: 99282242 heartbeat IPC: 0.658272 cumulative IPC: 0.541026 (Simulation time: 0 hr 19 min 30 sec) 
select_counter is 1382
Heartbeat CPU 0 instructions: 63000001 cycles: 100801786 heartbeat IPC: 0.658091 cumulative IPC: 0.542848 (Simulation time: 0 hr 19 min 51 sec) 
select_counter is 1381
Heartbeat CPU 0 instructions: 64000000 cycles: 102316482 heartbeat IPC: 0.660198 cumulative IPC: 0.544641 (Simulation time: 0 hr 20 min 11 sec) 
select_counter is 1394
Heartbeat CPU 0 instructions: 65000001 cycles: 103835970 heartbeat IPC: 0.658117 cumulative IPC: 0.546354 (Simulation time: 0 hr 20 min 32 sec) 
select_counter is 1394
Heartbeat CPU 0 instructions: 66000000 cycles: 105344121 heartbeat IPC: 0.663063 cumulative IPC: 0.548076 (Simulation time: 0 hr 20 min 52 sec) 
select_counter is 1413
Heartbeat CPU 0 instructions: 67000001 cycles: 106779633 heartbeat IPC: 0.696616 cumulative IPC: 0.550134 (Simulation time: 0 hr 21 min 12 sec) 
select_counter is 1460
Heartbeat CPU 0 instructions: 68000000 cycles: 108250851 heartbeat IPC: 0.679708 cumulative IPC: 0.551948 (Simulation time: 0 hr 21 min 33 sec) 
select_counter is 1461
Heartbeat CPU 0 instructions: 69000002 cycles: 109748445 heartbeat IPC: 0.667739 cumulative IPC: 0.553575 (Simulation time: 0 hr 21 min 55 sec) 
select_counter is 1581
Heartbeat CPU 0 instructions: 70000001 cycles: 111243120 heartbeat IPC: 0.669041 cumulative IPC: 0.555172 (Simulation time: 0 hr 22 min 18 sec) 
select_counter is 1653
Heartbeat CPU 0 instructions: 71000003 cycles: 112791838 heartbeat IPC: 0.645697 cumulative IPC: 0.556451 (Simulation time: 0 hr 22 min 39 sec) 
select_counter is 1670
Heartbeat CPU 0 instructions: 72000000 cycles: 114960443 heartbeat IPC: 0.461125 cumulative IPC: 0.554602 (Simulation time: 0 hr 22 min 58 sec) 
select_counter is 1694
Heartbeat CPU 0 instructions: 73000000 cycles: 117139225 heartbeat IPC: 0.458972 cumulative IPC: 0.552774 (Simulation time: 0 hr 23 min 16 sec) 
select_counter is 1747
Heartbeat CPU 0 instructions: 74000000 cycles: 119304973 heartbeat IPC: 0.461734 cumulative IPC: 0.551076 (Simulation time: 0 hr 23 min 33 sec) 
select_counter is 1769
Heartbeat CPU 0 instructions: 75000000 cycles: 121483444 heartbeat IPC: 0.459038 cumulative IPC: 0.549381 (Simulation time: 0 hr 23 min 53 sec) 
select_counter is 1814
Heartbeat CPU 0 instructions: 76000000 cycles: 123673847 heartbeat IPC: 0.456537 cumulative IPC: 0.547694 (Simulation time: 0 hr 24 min 11 sec) 
select_counter is 1804
Heartbeat CPU 0 instructions: 77000001 cycles: 125270832 heartbeat IPC: 0.626181 cumulative IPC: 0.54872 (Simulation time: 0 hr 24 min 31 sec) 
select_counter is 1806
Heartbeat CPU 0 instructions: 78000000 cycles: 126775826 heartbeat IPC: 0.664454 cumulative IPC: 0.550129 (Simulation time: 0 hr 24 min 52 sec) 
select_counter is 1787
Heartbeat CPU 0 instructions: 79000001 cycles: 128182389 heartbeat IPC: 0.710954 cumulative IPC: 0.551939 (Simulation time: 0 hr 25 min 13 sec) 
select_counter is 1206
Heartbeat CPU 0 instructions: 80000000 cycles: 129687833 heartbeat IPC: 0.664255 cumulative IPC: 0.553275 (Simulation time: 0 hr 25 min 35 sec) 
select_counter is 1127
Heartbeat CPU 0 instructions: 81000002 cycles: 131290337 heartbeat IPC: 0.624025 cumulative IPC: 0.55416 (Simulation time: 0 hr 25 min 56 sec) 
select_counter is 1124
Heartbeat CPU 0 instructions: 82000003 cycles: 133452329 heartbeat IPC: 0.462537 cumulative IPC: 0.55264 (Simulation time: 0 hr 26 min 13 sec) 
select_counter is 1103
Heartbeat CPU 0 instructions: 83000000 cycles: 135628010 heartbeat IPC: 0.459625 cumulative IPC: 0.551112 (Simulation time: 0 hr 26 min 31 sec) 
select_counter is 1110
Heartbeat CPU 0 instructions: 84000000 cycles: 137795881 heartbeat IPC: 0.461282 cumulative IPC: 0.549666 (Simulation time: 0 hr 26 min 49 sec) 
select_counter is 1145
Heartbeat CPU 0 instructions: 85000002 cycles: 139963395 heartbeat IPC: 0.461359 cumulative IPC: 0.548266 (Simulation time: 0 hr 27 min 7 sec) 
select_counter is 1169
Heartbeat CPU 0 instructions: 86000002 cycles: 142148431 heartbeat IPC: 0.457658 cumulative IPC: 0.546842 (Simulation time: 0 hr 27 min 30 sec) 
select_counter is 1176
Heartbeat CPU 0 instructions: 87000002 cycles: 143782689 heartbeat IPC: 0.611898 cumulative IPC: 0.547598 (Simulation time: 0 hr 27 min 55 sec) 
select_counter is 1189
Heartbeat CPU 0 instructions: 88000000 cycles: 145356277 heartbeat IPC: 0.635489 cumulative IPC: 0.548571 (Simulation time: 0 hr 28 min 19 sec) 
select_counter is 1268
Heartbeat CPU 0 instructions: 89000000 cycles: 146935127 heartbeat IPC: 0.633372 cumulative IPC: 0.549502 (Simulation time: 0 hr 28 min 42 sec) 
select_counter is 1395
Heartbeat CPU 0 instructions: 90000000 cycles: 148836677 heartbeat IPC: 0.525887 cumulative IPC: 0.549194 (Simulation time: 0 hr 29 min 5 sec) 
select_counter is 1468
Heartbeat CPU 0 instructions: 91000002 cycles: 151608559 heartbeat IPC: 0.360766 cumulative IPC: 0.545675 (Simulation time: 0 hr 29 min 25 sec) 
select_counter is 1851
Heartbeat CPU 0 instructions: 92000000 cycles: 154440045 heartbeat IPC: 0.353171 cumulative IPC: 0.542072 (Simulation time: 0 hr 29 min 44 sec) 
select_counter is 2045
Heartbeat CPU 0 instructions: 93000001 cycles: 157199192 heartbeat IPC: 0.362431 cumulative IPC: 0.538854 (Simulation time: 0 hr 30 min 3 sec) 
select_counter is 2044
Heartbeat CPU 0 instructions: 94000001 cycles: 159761455 heartbeat IPC: 0.39028 cumulative IPC: 0.536423 (Simulation time: 0 hr 30 min 22 sec) 
select_counter is 2031
Heartbeat CPU 0 instructions: 95000000 cycles: 161333389 heartbeat IPC: 0.636158 cumulative IPC: 0.537414 (Simulation time: 0 hr 30 min 44 sec) 
select_counter is 2030
Heartbeat CPU 0 instructions: 96000000 cycles: 162902633 heartbeat IPC: 0.63725 cumulative IPC: 0.538395 (Simulation time: 0 hr 31 min 6 sec) 
select_counter is 1378
Heartbeat CPU 0 instructions: 97000002 cycles: 164475831 heartbeat IPC: 0.635649 cumulative IPC: 0.539343 (Simulation time: 0 hr 31 min 29 sec) 
select_counter is 1183
Heartbeat CPU 0 instructions: 98000001 cycles: 166614753 heartbeat IPC: 0.467525 cumulative IPC: 0.538404 (Simulation time: 0 hr 31 min 52 sec) 
select_counter is 1166
Heartbeat CPU 0 instructions: 99000003 cycles: 169340850 heartbeat IPC: 0.366826 cumulative IPC: 0.535589 (Simulation time: 0 hr 32 min 13 sec) 
select_counter is 1167
Heartbeat CPU 0 instructions: 100000000 cycles: 172058517 heartbeat IPC: 0.367962 cumulative IPC: 0.532891 (Simulation time: 0 hr 32 min 32 sec) 
select_counter is 1178
Heartbeat CPU 0 instructions: 101000000 cycles: 174760038 heartbeat IPC: 0.370162 cumulative IPC: 0.530329 (Simulation time: 0 hr 32 min 54 sec) 
select_counter is 1203
Heartbeat CPU 0 instructions: 102000000 cycles: 177007173 heartbeat IPC: 0.445011 cumulative IPC: 0.529226 (Simulation time: 0 hr 33 min 15 sec) 
select_counter is 1212
Heartbeat CPU 0 instructions: 103000002 cycles: 178478038 heartbeat IPC: 0.679873 cumulative IPC: 0.53049 (Simulation time: 0 hr 33 min 35 sec) 
select_counter is 1212
Heartbeat CPU 0 instructions: 104000000 cycles: 179948623 heartbeat IPC: 0.68 cumulative IPC: 0.531734 (Simulation time: 0 hr 33 min 58 sec) 
select_counter is 1219
Heartbeat CPU 0 instructions: 105000000 cycles: 181421851 heartbeat IPC: 0.678782 cumulative IPC: 0.53295 (Simulation time: 0 hr 34 min 22 sec) 
select_counter is 1319
Heartbeat CPU 0 instructions: 106000003 cycles: 182885851 heartbeat IPC: 0.683062 cumulative IPC: 0.534172 (Simulation time: 0 hr 34 min 42 sec) 
select_counter is 1352
Heartbeat CPU 0 instructions: 107000000 cycles: 184958621 heartbeat IPC: 0.482445 cumulative IPC: 0.533583 (Simulation time: 0 hr 34 min 58 sec) 
select_counter is 1559
Heartbeat CPU 0 instructions: 108000000 cycles: 187315437 heartbeat IPC: 0.424301 cumulative IPC: 0.532184 (Simulation time: 0 hr 35 min 14 sec) 
select_counter is 1965
Heartbeat CPU 0 instructions: 109000002 cycles: 189607652 heartbeat IPC: 0.43626 cumulative IPC: 0.531005 (Simulation time: 0 hr 35 min 29 sec) 
select_counter is 2047
Heartbeat CPU 0 instructions: 110000002 cycles: 192054818 heartbeat IPC: 0.408636 cumulative IPC: 0.529419 (Simulation time: 0 hr 35 min 44 sec) 
select_counter is 2040
Finished CPU 0 instructions: 100000000 cycles: 188886254 cummulative IPC: 0.529419 (Simulation time: 0 hr 35 min 44 sec) 

ChampSim completed all CPUs

Region of Interest Statistics

CPU 0 cummulative IPC: 0.529419 instructions: 100000000 cycles: 188886254
LLC TOTAL     ACCESS:    3801551  HIT:     125333  MISS:    3676218
LLC LOAD      ACCESS:     656864  HIT:      18044  MISS:     638820
LLC RFO       ACCESS:         20  HIT:         15  MISS:          5
LLC PREFETCH  ACCESS:    2132562  HIT:      55567  MISS:    2076995
LLC WRITEBACK ACCESS:    1012105  HIT:      51707  MISS:     960398
Ship samples: 
3, 59, 84, 119, 152, 178, 193, 230, 270, 312, 332, 376, 414, 430, 456, 485, 521, 551, 604, 618, 643, 702, 705, 763, 796, 809, 845, 869, 920, 935, 961, 1010, 1042, 1084, 1098, 1132, 1154, 1211, 1230, 1248, 1292, 1329, 1354, 1407, 1418, 1442, 1491, 1526, 1550, 1588, 1626, 1638, 1674, 1727, 1753, 1762, 1802, 1855, 1867, 1910, 1926, 1953, 1996, 2047, 
Lime duel samples: 
0, 42, 64, 105, 138, 161, 208, 234, 261, 315, 346, 363, 406, 440, 450, 494, 530, 549, 594, 625, 669, 699, 717, 739, 797, 821, 839, 864, 901, 947, 960, 1004, 1034, 1081, 1102, 1127, 1166, 1194, 1219, 1271, 1290, 1322, 1370, 1399, 1410, 1447, 1484, 1524, 1541, 1587, 1624, 1632, 1692, 1698, 1752, 1760, 1797, 1844, 1876, 1919, 1941, 1976, 2009, 2040, 
Lime samples: 
0, 138, 261, 406, 530, 669, 797, 901, 1034, 1166, 1290, 1410, 1541, 1692, 1797, 1941, 
Insertion Distribution: 
	LOAD 92 0 0 0 0 0 2151 108845 
	RFO 0 0 0 0 0 0 4 0 
	PREF 0 20117 0 0 0 0 22015 561788 
	WRITEBACK 0 0 0 0 0 0 0 285972 
Total Prefetch Downgrades: 868
