
*** ChampSim Multicore Out-of-Order Simulator ***

Warmup Instructions: 10000000
Simulation Instructions: 100000000
Configuration: 2
Number of CPUs: 1
LLC sets: 2048
LLC ways: 16
Off-chip DRAM Channels: 1 Width: 64-bit Data Rate: 1600 MT/s

CPU 0 runs /datasets/cs240c-wi22-a00-public/data/Assignment2-gz/wrf_1212B.trace.gz
CPU 0 L1D next line prefetcher
CPU 0 L2C IP-based stride prefetcher
Heartbeat CPU 0 instructions: 1000001 cycles: 598660 heartbeat IPC: 1.6704 cumulative IPC: 1.6704 (Simulation time: 0 hr 0 min 29 sec) 
select_counter is 1046
Heartbeat CPU 0 instructions: 2000000 cycles: 1197118 heartbeat IPC: 1.67096 cumulative IPC: 1.67068 (Simulation time: 0 hr 0 min 51 sec) 
select_counter is 1048
Heartbeat CPU 0 instructions: 3000001 cycles: 1795976 heartbeat IPC: 1.66985 cumulative IPC: 1.6704 (Simulation time: 0 hr 1 min 14 sec) 
select_counter is 1049
Heartbeat CPU 0 instructions: 4000000 cycles: 2394087 heartbeat IPC: 1.67193 cumulative IPC: 1.67078 (Simulation time: 0 hr 1 min 40 sec) 
select_counter is 1057
Heartbeat CPU 0 instructions: 5000000 cycles: 2993053 heartbeat IPC: 1.66954 cumulative IPC: 1.67054 (Simulation time: 0 hr 2 min 4 sec) 
select_counter is 1045
Heartbeat CPU 0 instructions: 6000001 cycles: 3592667 heartbeat IPC: 1.66774 cumulative IPC: 1.67007 (Simulation time: 0 hr 2 min 30 sec) 
select_counter is 1031
Heartbeat CPU 0 instructions: 7000001 cycles: 4190664 heartbeat IPC: 1.67225 cumulative IPC: 1.67038 (Simulation time: 0 hr 2 min 58 sec) 
select_counter is 1004
Heartbeat CPU 0 instructions: 8000000 cycles: 4788872 heartbeat IPC: 1.67166 cumulative IPC: 1.67054 (Simulation time: 0 hr 3 min 21 sec) 
select_counter is 994
Heartbeat CPU 0 instructions: 9000002 cycles: 5387791 heartbeat IPC: 1.66968 cumulative IPC: 1.67044 (Simulation time: 0 hr 3 min 44 sec) 
select_counter is 986
Heartbeat CPU 0 instructions: 10000001 cycles: 5987356 heartbeat IPC: 1.66787 cumulative IPC: 1.67019 (Simulation time: 0 hr 4 min 8 sec) 
select_counter is 972

Warmup complete CPU 0 instructions: 10000001 cycles: 5987356 (Simulation time: 0 hr 4 min 8 sec) 

Heartbeat CPU 0 instructions: 11000003 cycles: 7749392 heartbeat IPC: 0.567526 cumulative IPC: 0.567526 (Simulation time: 0 hr 4 min 38 sec) 
select_counter is 947
Heartbeat CPU 0 instructions: 12000000 cycles: 9524265 heartbeat IPC: 0.563419 cumulative IPC: 0.565465 (Simulation time: 0 hr 5 min 9 sec) 
select_counter is 938
Heartbeat CPU 0 instructions: 13000000 cycles: 11313981 heartbeat IPC: 0.558748 cumulative IPC: 0.563208 (Simulation time: 0 hr 5 min 39 sec) 
select_counter is 906
Heartbeat CPU 0 instructions: 14000002 cycles: 13101451 heartbeat IPC: 0.559451 cumulative IPC: 0.562264 (Simulation time: 0 hr 6 min 10 sec) 
select_counter is 897
Heartbeat CPU 0 instructions: 15000003 cycles: 14899083 heartbeat IPC: 0.556288 cumulative IPC: 0.561059 (Simulation time: 0 hr 6 min 41 sec) 
select_counter is 892
Heartbeat CPU 0 instructions: 16000000 cycles: 16647055 heartbeat IPC: 0.57209 cumulative IPC: 0.562868 (Simulation time: 0 hr 7 min 14 sec) 
select_counter is 868
Heartbeat CPU 0 instructions: 17000000 cycles: 18428901 heartbeat IPC: 0.561216 cumulative IPC: 0.562631 (Simulation time: 0 hr 7 min 43 sec) 
select_counter is 847
Heartbeat CPU 0 instructions: 18000000 cycles: 20210958 heartbeat IPC: 0.561149 cumulative IPC: 0.562445 (Simulation time: 0 hr 8 min 14 sec) 
select_counter is 851
Heartbeat CPU 0 instructions: 19000003 cycles: 21989642 heartbeat IPC: 0.562215 cumulative IPC: 0.56242 (Simulation time: 0 hr 8 min 46 sec) 
select_counter is 843
Heartbeat CPU 0 instructions: 20000000 cycles: 23742450 heartbeat IPC: 0.570511 cumulative IPC: 0.563219 (Simulation time: 0 hr 9 min 15 sec) 
select_counter is 826
Heartbeat CPU 0 instructions: 21000001 cycles: 25511118 heartbeat IPC: 0.565398 cumulative IPC: 0.563416 (Simulation time: 0 hr 9 min 45 sec) 
select_counter is 820
Heartbeat CPU 0 instructions: 22000001 cycles: 27295422 heartbeat IPC: 0.560443 cumulative IPC: 0.563167 (Simulation time: 0 hr 10 min 14 sec) 
select_counter is 802
Heartbeat CPU 0 instructions: 23000000 cycles: 29082637 heartbeat IPC: 0.559529 cumulative IPC: 0.562886 (Simulation time: 0 hr 10 min 45 sec) 
select_counter is 797
Heartbeat CPU 0 instructions: 24000000 cycles: 30869395 heartbeat IPC: 0.559673 cumulative IPC: 0.562655 (Simulation time: 0 hr 11 min 15 sec) 
select_counter is 770
Heartbeat CPU 0 instructions: 25000002 cycles: 32617285 heartbeat IPC: 0.57212 cumulative IPC: 0.563276 (Simulation time: 0 hr 11 min 43 sec) 
select_counter is 754
Heartbeat CPU 0 instructions: 26000000 cycles: 34399927 heartbeat IPC: 0.560964 cumulative IPC: 0.563131 (Simulation time: 0 hr 12 min 15 sec) 
select_counter is 750
Heartbeat CPU 0 instructions: 27000000 cycles: 36182641 heartbeat IPC: 0.560942 cumulative IPC: 0.563002 (Simulation time: 0 hr 12 min 49 sec) 
select_counter is 749
Heartbeat CPU 0 instructions: 28000000 cycles: 37961820 heartbeat IPC: 0.562057 cumulative IPC: 0.562949 (Simulation time: 0 hr 13 min 24 sec) 
select_counter is 748
Heartbeat CPU 0 instructions: 29000000 cycles: 39715100 heartbeat IPC: 0.57036 cumulative IPC: 0.563334 (Simulation time: 0 hr 13 min 52 sec) 
select_counter is 715
Heartbeat CPU 0 instructions: 30000003 cycles: 41476889 heartbeat IPC: 0.567607 cumulative IPC: 0.563546 (Simulation time: 0 hr 14 min 23 sec) 
select_counter is 715
Heartbeat CPU 0 instructions: 31000000 cycles: 43259882 heartbeat IPC: 0.560853 cumulative IPC: 0.563418 (Simulation time: 0 hr 14 min 55 sec) 
select_counter is 710
Heartbeat CPU 0 instructions: 32000000 cycles: 45041738 heartbeat IPC: 0.561213 cumulative IPC: 0.563317 (Simulation time: 0 hr 15 min 26 sec) 
select_counter is 721
Heartbeat CPU 0 instructions: 33000000 cycles: 46833267 heartbeat IPC: 0.558182 cumulative IPC: 0.563092 (Simulation time: 0 hr 15 min 58 sec) 
select_counter is 707
Heartbeat CPU 0 instructions: 34000000 cycles: 48572162 heartbeat IPC: 0.575078 cumulative IPC: 0.563581 (Simulation time: 0 hr 16 min 32 sec) 
select_counter is 704
Heartbeat CPU 0 instructions: 35000003 cycles: 50355133 heartbeat IPC: 0.560863 cumulative IPC: 0.563472 (Simulation time: 0 hr 17 min 4 sec) 
select_counter is 698
Heartbeat CPU 0 instructions: 36000000 cycles: 52136632 heartbeat IPC: 0.561323 cumulative IPC: 0.563389 (Simulation time: 0 hr 17 min 34 sec) 
select_counter is 692
Heartbeat CPU 0 instructions: 37000001 cycles: 53920897 heartbeat IPC: 0.560455 cumulative IPC: 0.56328 (Simulation time: 0 hr 18 min 2 sec) 
select_counter is 683
Heartbeat CPU 0 instructions: 38000000 cycles: 55677824 heartbeat IPC: 0.569175 cumulative IPC: 0.563488 (Simulation time: 0 hr 18 min 31 sec) 
select_counter is 693
Heartbeat CPU 0 instructions: 39000000 cycles: 57433014 heartbeat IPC: 0.569739 cumulative IPC: 0.563702 (Simulation time: 0 hr 19 min 4 sec) 
select_counter is 686
Heartbeat CPU 0 instructions: 40000000 cycles: 59214769 heartbeat IPC: 0.561244 cumulative IPC: 0.563619 (Simulation time: 0 hr 19 min 34 sec) 
select_counter is 680
Heartbeat CPU 0 instructions: 41000001 cycles: 60996635 heartbeat IPC: 0.56121 cumulative IPC: 0.563541 (Simulation time: 0 hr 20 min 5 sec) 
select_counter is 678
Heartbeat CPU 0 instructions: 42000003 cycles: 62784651 heartbeat IPC: 0.55928 cumulative IPC: 0.563407 (Simulation time: 0 hr 20 min 34 sec) 
select_counter is 668
Heartbeat CPU 0 instructions: 43000001 cycles: 64512392 heartbeat IPC: 0.578789 cumulative IPC: 0.563861 (Simulation time: 0 hr 21 min 3 sec) 
select_counter is 668
Heartbeat CPU 0 instructions: 44000000 cycles: 66293185 heartbeat IPC: 0.561547 cumulative IPC: 0.563793 (Simulation time: 0 hr 21 min 33 sec) 
select_counter is 673
Heartbeat CPU 0 instructions: 45000001 cycles: 68073996 heartbeat IPC: 0.561542 cumulative IPC: 0.563728 (Simulation time: 0 hr 22 min 3 sec) 
select_counter is 665
Heartbeat CPU 0 instructions: 46000001 cycles: 69853088 heartbeat IPC: 0.562084 cumulative IPC: 0.563683 (Simulation time: 0 hr 22 min 32 sec) 
select_counter is 657
Heartbeat CPU 0 instructions: 47000000 cycles: 71611740 heartbeat IPC: 0.568617 cumulative IPC: 0.563815 (Simulation time: 0 hr 23 min 0 sec) 
select_counter is 622
Heartbeat CPU 0 instructions: 48000000 cycles: 73353684 heartbeat IPC: 0.574071 cumulative IPC: 0.56408 (Simulation time: 0 hr 23 min 30 sec) 
select_counter is 611
Heartbeat CPU 0 instructions: 49000002 cycles: 75135732 heartbeat IPC: 0.561153 cumulative IPC: 0.564005 (Simulation time: 0 hr 24 min 1 sec) 
select_counter is 613
Heartbeat CPU 0 instructions: 50000002 cycles: 76916796 heartbeat IPC: 0.561462 cumulative IPC: 0.563941 (Simulation time: 0 hr 24 min 33 sec) 
select_counter is 616
Heartbeat CPU 0 instructions: 51000002 cycles: 78721848 heartbeat IPC: 0.554001 cumulative IPC: 0.563694 (Simulation time: 0 hr 25 min 5 sec) 
select_counter is 611
Heartbeat CPU 0 instructions: 52000000 cycles: 80446347 heartbeat IPC: 0.579877 cumulative IPC: 0.564069 (Simulation time: 0 hr 25 min 36 sec) 
select_counter is 617
Heartbeat CPU 0 instructions: 53000002 cycles: 82213557 heartbeat IPC: 0.565865 cumulative IPC: 0.564111 (Simulation time: 0 hr 26 min 7 sec) 
select_counter is 617
Heartbeat CPU 0 instructions: 54000001 cycles: 83994900 heartbeat IPC: 0.561374 cumulative IPC: 0.564048 (Simulation time: 0 hr 26 min 38 sec) 
select_counter is 610
Heartbeat CPU 0 instructions: 55000000 cycles: 85775733 heartbeat IPC: 0.561534 cumulative IPC: 0.563992 (Simulation time: 0 hr 27 min 11 sec) 
select_counter is 604
Heartbeat CPU 0 instructions: 56000000 cycles: 87553801 heartbeat IPC: 0.562408 cumulative IPC: 0.563957 (Simulation time: 0 hr 27 min 41 sec) 
select_counter is 596
Heartbeat CPU 0 instructions: 57000001 cycles: 89282141 heartbeat IPC: 0.57859 cumulative IPC: 0.564261 (Simulation time: 0 hr 28 min 11 sec) 
select_counter is 602
Heartbeat CPU 0 instructions: 58000001 cycles: 91064127 heartbeat IPC: 0.561172 cumulative IPC: 0.564196 (Simulation time: 0 hr 28 min 44 sec) 
select_counter is 593
Heartbeat CPU 0 instructions: 59000000 cycles: 92846131 heartbeat IPC: 0.561165 cumulative IPC: 0.564134 (Simulation time: 0 hr 29 min 16 sec) 
select_counter is 597
Heartbeat CPU 0 instructions: 60000000 cycles: 94630462 heartbeat IPC: 0.560434 cumulative IPC: 0.56406 (Simulation time: 0 hr 29 min 48 sec) 
select_counter is 602
Heartbeat CPU 0 instructions: 61000001 cycles: 96372978 heartbeat IPC: 0.573883 cumulative IPC: 0.564249 (Simulation time: 0 hr 30 min 15 sec) 
select_counter is 592
Heartbeat CPU 0 instructions: 62000001 cycles: 98116019 heartbeat IPC: 0.57371 cumulative IPC: 0.564428 (Simulation time: 0 hr 30 min 45 sec) 
select_counter is 593
Heartbeat CPU 0 instructions: 63000002 cycles: 99901896 heartbeat IPC: 0.55995 cumulative IPC: 0.564343 (Simulation time: 0 hr 31 min 17 sec) 
select_counter is 595
Heartbeat CPU 0 instructions: 64000000 cycles: 101683952 heartbeat IPC: 0.561148 cumulative IPC: 0.564283 (Simulation time: 0 hr 31 min 47 sec) 
select_counter is 589
Heartbeat CPU 0 instructions: 65000000 cycles: 103474988 heartbeat IPC: 0.558336 cumulative IPC: 0.564174 (Simulation time: 0 hr 32 min 18 sec) 
select_counter is 556
Heartbeat CPU 0 instructions: 66000001 cycles: 105190419 heartbeat IPC: 0.582944 cumulative IPC: 0.564499 (Simulation time: 0 hr 32 min 47 sec) 
select_counter is 573
Heartbeat CPU 0 instructions: 67000002 cycles: 106947012 heartbeat IPC: 0.569284 cumulative IPC: 0.564582 (Simulation time: 0 hr 33 min 18 sec) 
select_counter is 584
Heartbeat CPU 0 instructions: 68000000 cycles: 108732719 heartbeat IPC: 0.560001 cumulative IPC: 0.564502 (Simulation time: 0 hr 33 min 50 sec) 
select_counter is 586
Heartbeat CPU 0 instructions: 69000001 cycles: 110516050 heartbeat IPC: 0.560749 cumulative IPC: 0.564438 (Simulation time: 0 hr 34 min 23 sec) 
select_counter is 585
Heartbeat CPU 0 instructions: 70000000 cycles: 112288433 heartbeat IPC: 0.564212 cumulative IPC: 0.564435 (Simulation time: 0 hr 34 min 50 sec) 
select_counter is 575
Heartbeat CPU 0 instructions: 71000001 cycles: 114003692 heartbeat IPC: 0.583003 cumulative IPC: 0.564729 (Simulation time: 0 hr 35 min 23 sec) 
select_counter is 578
Heartbeat CPU 0 instructions: 72000000 cycles: 115780365 heartbeat IPC: 0.562849 cumulative IPC: 0.564699 (Simulation time: 0 hr 35 min 55 sec) 
select_counter is 583
Heartbeat CPU 0 instructions: 73000001 cycles: 117570837 heartbeat IPC: 0.558513 cumulative IPC: 0.5646 (Simulation time: 0 hr 36 min 21 sec) 
select_counter is 573
Heartbeat CPU 0 instructions: 74000000 cycles: 119350612 heartbeat IPC: 0.561868 cumulative IPC: 0.564557 (Simulation time: 0 hr 36 min 51 sec) 
select_counter is 578
Heartbeat CPU 0 instructions: 75000002 cycles: 121109566 heartbeat IPC: 0.568521 cumulative IPC: 0.564617 (Simulation time: 0 hr 37 min 14 sec) 
select_counter is 570
Heartbeat CPU 0 instructions: 76000000 cycles: 122843890 heartbeat IPC: 0.576592 cumulative IPC: 0.564795 (Simulation time: 0 hr 37 min 35 sec) 
select_counter is 571
Heartbeat CPU 0 instructions: 77000003 cycles: 124621545 heartbeat IPC: 0.562541 cumulative IPC: 0.564761 (Simulation time: 0 hr 37 min 56 sec) 
select_counter is 572
Heartbeat CPU 0 instructions: 78000000 cycles: 126402838 heartbeat IPC: 0.561388 cumulative IPC: 0.564711 (Simulation time: 0 hr 38 min 17 sec) 
select_counter is 576
Heartbeat CPU 0 instructions: 79000000 cycles: 128203004 heartbeat IPC: 0.555504 cumulative IPC: 0.564576 (Simulation time: 0 hr 38 min 38 sec) 
select_counter is 593
Heartbeat CPU 0 instructions: 80000000 cycles: 129923266 heartbeat IPC: 0.581307 cumulative IPC: 0.564808 (Simulation time: 0 hr 38 min 57 sec) 
select_counter is 590
Heartbeat CPU 0 instructions: 81000003 cycles: 131692207 heartbeat IPC: 0.565312 cumulative IPC: 0.564815 (Simulation time: 0 hr 39 min 17 sec) 
select_counter is 591
Heartbeat CPU 0 instructions: 82000002 cycles: 133486233 heartbeat IPC: 0.557405 cumulative IPC: 0.564711 (Simulation time: 0 hr 39 min 35 sec) 
select_counter is 581
Heartbeat CPU 0 instructions: 83000001 cycles: 135275049 heartbeat IPC: 0.559028 cumulative IPC: 0.564632 (Simulation time: 0 hr 39 min 54 sec) 
select_counter is 562
Heartbeat CPU 0 instructions: 84000000 cycles: 137055477 heartbeat IPC: 0.561662 cumulative IPC: 0.564592 (Simulation time: 0 hr 40 min 11 sec) 
select_counter is 545
Heartbeat CPU 0 instructions: 85000000 cycles: 138773629 heartbeat IPC: 0.582021 cumulative IPC: 0.564817 (Simulation time: 0 hr 40 min 28 sec) 
select_counter is 548
Heartbeat CPU 0 instructions: 86000001 cycles: 140559443 heartbeat IPC: 0.559969 cumulative IPC: 0.564753 (Simulation time: 0 hr 40 min 43 sec) 
select_counter is 545
Heartbeat CPU 0 instructions: 87000000 cycles: 142342480 heartbeat IPC: 0.56084 cumulative IPC: 0.564702 (Simulation time: 0 hr 40 min 59 sec) 
select_counter is 550
Heartbeat CPU 0 instructions: 88000000 cycles: 144119096 heartbeat IPC: 0.562868 cumulative IPC: 0.564678 (Simulation time: 0 hr 41 min 14 sec) 
select_counter is 549
Heartbeat CPU 0 instructions: 89000000 cycles: 145873468 heartbeat IPC: 0.570005 cumulative IPC: 0.564745 (Simulation time: 0 hr 41 min 29 sec) 
select_counter is 557
Heartbeat CPU 0 instructions: 90000000 cycles: 147628880 heartbeat IPC: 0.569667 cumulative IPC: 0.564806 (Simulation time: 0 hr 41 min 44 sec) 
select_counter is 554
Heartbeat CPU 0 instructions: 91000001 cycles: 149407861 heartbeat IPC: 0.56212 cumulative IPC: 0.564773 (Simulation time: 0 hr 42 min 0 sec) 
select_counter is 540
Heartbeat CPU 0 instructions: 92000000 cycles: 151191075 heartbeat IPC: 0.560785 cumulative IPC: 0.564724 (Simulation time: 0 hr 42 min 17 sec) 
select_counter is 551
Heartbeat CPU 0 instructions: 93000003 cycles: 152976597 heartbeat IPC: 0.560062 cumulative IPC: 0.564667 (Simulation time: 0 hr 42 min 32 sec) 
select_counter is 551
Heartbeat CPU 0 instructions: 94000001 cycles: 154703221 heartbeat IPC: 0.579164 cumulative IPC: 0.564835 (Simulation time: 0 hr 42 min 45 sec) 
select_counter is 561
Heartbeat CPU 0 instructions: 95000001 cycles: 156483411 heartbeat IPC: 0.561738 cumulative IPC: 0.564799 (Simulation time: 0 hr 42 min 59 sec) 
select_counter is 562
Heartbeat CPU 0 instructions: 96000000 cycles: 158265097 heartbeat IPC: 0.561266 cumulative IPC: 0.564758 (Simulation time: 0 hr 43 min 12 sec) 
select_counter is 559
Heartbeat CPU 0 instructions: 97000000 cycles: 160044759 heartbeat IPC: 0.561904 cumulative IPC: 0.564725 (Simulation time: 0 hr 43 min 25 sec) 
select_counter is 550
Heartbeat CPU 0 instructions: 98000000 cycles: 161808696 heartbeat IPC: 0.566914 cumulative IPC: 0.564749 (Simulation time: 0 hr 43 min 35 sec) 
select_counter is 534
Heartbeat CPU 0 instructions: 99000000 cycles: 163562922 heartbeat IPC: 0.570052 cumulative IPC: 0.564808 (Simulation time: 0 hr 43 min 43 sec) 
select_counter is 532
Heartbeat CPU 0 instructions: 100000000 cycles: 165341520 heartbeat IPC: 0.562241 cumulative IPC: 0.56478 (Simulation time: 0 hr 43 min 52 sec) 
select_counter is 527
Heartbeat CPU 0 instructions: 101000000 cycles: 167119533 heartbeat IPC: 0.562426 cumulative IPC: 0.564754 (Simulation time: 0 hr 43 min 59 sec) 
select_counter is 534
Heartbeat CPU 0 instructions: 102000003 cycles: 168911392 heartbeat IPC: 0.558081 cumulative IPC: 0.56468 (Simulation time: 0 hr 44 min 7 sec) 
select_counter is 534
Heartbeat CPU 0 instructions: 103000001 cycles: 170642592 heartbeat IPC: 0.577633 cumulative IPC: 0.564817 (Simulation time: 0 hr 44 min 15 sec) 
select_counter is 536
Heartbeat CPU 0 instructions: 104000000 cycles: 172427442 heartbeat IPC: 0.560271 cumulative IPC: 0.564768 (Simulation time: 0 hr 44 min 22 sec) 
select_counter is 540
Heartbeat CPU 0 instructions: 105000002 cycles: 174207851 heartbeat IPC: 0.56167 cumulative IPC: 0.564735 (Simulation time: 0 hr 44 min 28 sec) 
select_counter is 534
Heartbeat CPU 0 instructions: 106000001 cycles: 175984939 heartbeat IPC: 0.562718 cumulative IPC: 0.564714 (Simulation time: 0 hr 44 min 34 sec) 
select_counter is 537
Heartbeat CPU 0 instructions: 107000003 cycles: 177747018 heartbeat IPC: 0.567513 cumulative IPC: 0.564743 (Simulation time: 0 hr 44 min 39 sec) 
select_counter is 527
Heartbeat CPU 0 instructions: 108000000 cycles: 179512403 heartbeat IPC: 0.566447 cumulative IPC: 0.56476 (Simulation time: 0 hr 44 min 44 sec) 
select_counter is 530
Heartbeat CPU 0 instructions: 109000002 cycles: 181297078 heartbeat IPC: 0.560327 cumulative IPC: 0.564715 (Simulation time: 0 hr 44 min 49 sec) 
select_counter is 530
Heartbeat CPU 0 instructions: 110000003 cycles: 183076456 heartbeat IPC: 0.561995 cumulative IPC: 0.564687 (Simulation time: 0 hr 44 min 54 sec) 
select_counter is 528
Finished CPU 0 instructions: 100000002 cycles: 177089100 cummulative IPC: 0.564687 (Simulation time: 0 hr 44 min 54 sec) 

ChampSim completed all CPUs

Region of Interest Statistics

CPU 0 cummulative IPC: 0.564687 instructions: 100000002 cycles: 177089100
LLC TOTAL     ACCESS:     134719  HIT:      14025  MISS:     120694
LLC LOAD      ACCESS:      14805  HIT:       3575  MISS:      11230
LLC RFO       ACCESS:       1232  HIT:        323  MISS:        909
LLC PREFETCH  ACCESS:      79578  HIT:       5259  MISS:      74319
LLC WRITEBACK ACCESS:      39104  HIT:       4868  MISS:      34236
Ship samples: 
0, 52, 69, 99, 136, 191, 203, 227, 260, 312, 321, 370, 400, 442, 464, 501, 541, 553, 602, 639, 667, 701, 722, 767, 787, 828, 852, 893, 919, 950, 989, 1015, 1045, 1084, 1100, 1139, 1177, 1198, 1232, 1250, 1311, 1325, 1374, 1389, 1419, 1471, 1476, 1507, 1541, 1595, 1620, 1638, 1688, 1698, 1752, 1781, 1806, 1839, 1880, 1918, 1923, 1958, 1989, 2045, 
Lime duel samples: 
4, 55, 88, 112, 157, 175, 218, 244, 280, 307, 325, 381, 392, 424, 465, 486, 528, 554, 578, 620, 643, 702, 710, 736, 791, 823, 853, 878, 901, 951, 967, 1003, 1050, 1056, 1104, 1147, 1160, 1200, 1227, 1261, 1284, 1337, 1366, 1380, 1428, 1450, 1475, 1525, 1536, 1584, 1624, 1640, 1695, 1716, 1756, 1761, 1809, 1835, 1875, 1891, 1922, 1953, 2008, 2022, 
Lime samples: 
4, 157, 280, 392, 528, 643, 791, 901, 1050, 1160, 1284, 1428, 1536, 1695, 1809, 1922, 
Insertion Distribution: 
	LOAD 0 0 0 0 0 0 7188 3858 
	RFO 0 0 0 0 0 0 278 657 
	PREF 0 0 0 0 0 0 23867 51094 
	WRITEBACK 0 0 0 0 0 0 0 34261 
Total Prefetch Downgrades: 138
