
*** ChampSim Multicore Out-of-Order Simulator ***

Warmup Instructions: 10000000
Simulation Instructions: 100000000
Configuration: 2
Number of CPUs: 1
LLC sets: 2048
LLC ways: 16
Off-chip DRAM Channels: 1 Width: 64-bit Data Rate: 1600 MT/s

CPU 0 runs /datasets/cs240c-wi22-a00-public/data/Assignment2-gz/libquantum_1210B.trace.gz
CPU 0 L1D next line prefetcher
CPU 0 L2C IP-based stride prefetcher
Heartbeat CPU 0 instructions: 1000003 cycles: 314916 heartbeat IPC: 3.17546 cumulative IPC: 3.17546 (Simulation time: 0 hr 0 min 11 sec) 
select_counter is 719
Heartbeat CPU 0 instructions: 2000000 cycles: 630170 heartbeat IPC: 3.17204 cumulative IPC: 3.17375 (Simulation time: 0 hr 0 min 22 sec) 
select_counter is 709
Heartbeat CPU 0 instructions: 3000001 cycles: 945979 heartbeat IPC: 3.16647 cumulative IPC: 3.17132 (Simulation time: 0 hr 0 min 34 sec) 
select_counter is 703
Heartbeat CPU 0 instructions: 4000000 cycles: 1260333 heartbeat IPC: 3.18112 cumulative IPC: 3.17376 (Simulation time: 0 hr 0 min 45 sec) 
select_counter is 688
Heartbeat CPU 0 instructions: 5000001 cycles: 1576818 heartbeat IPC: 3.15971 cumulative IPC: 3.17094 (Simulation time: 0 hr 0 min 56 sec) 
select_counter is 694
Heartbeat CPU 0 instructions: 6000002 cycles: 1891318 heartbeat IPC: 3.17965 cumulative IPC: 3.17239 (Simulation time: 0 hr 1 min 8 sec) 
select_counter is 687
Heartbeat CPU 0 instructions: 7000001 cycles: 2206981 heartbeat IPC: 3.16793 cumulative IPC: 3.17175 (Simulation time: 0 hr 1 min 20 sec) 
select_counter is 680
Heartbeat CPU 0 instructions: 8000000 cycles: 2522385 heartbeat IPC: 3.17053 cumulative IPC: 3.1716 (Simulation time: 0 hr 1 min 31 sec) 
select_counter is 667
Heartbeat CPU 0 instructions: 9000002 cycles: 2837144 heartbeat IPC: 3.17704 cumulative IPC: 3.1722 (Simulation time: 0 hr 1 min 42 sec) 
select_counter is 647
Heartbeat CPU 0 instructions: 10000003 cycles: 3153454 heartbeat IPC: 3.16146 cumulative IPC: 3.17113 (Simulation time: 0 hr 1 min 53 sec) 
select_counter is 633

Warmup complete CPU 0 instructions: 10000003 cycles: 3153454 (Simulation time: 0 hr 1 min 53 sec) 

Heartbeat CPU 0 instructions: 11000001 cycles: 5253720 heartbeat IPC: 0.476129 cumulative IPC: 0.476129 (Simulation time: 0 hr 2 min 12 sec) 
select_counter is 605
Heartbeat CPU 0 instructions: 12000000 cycles: 7295597 heartbeat IPC: 0.489745 cumulative IPC: 0.482841 (Simulation time: 0 hr 2 min 31 sec) 
select_counter is 596
Heartbeat CPU 0 instructions: 13000003 cycles: 9802877 heartbeat IPC: 0.39884 cumulative IPC: 0.451167 (Simulation time: 0 hr 2 min 53 sec) 
select_counter is 492
Heartbeat CPU 0 instructions: 14000001 cycles: 12368043 heartbeat IPC: 0.389838 cumulative IPC: 0.434094 (Simulation time: 0 hr 3 min 14 sec) 
select_counter is 517
Heartbeat CPU 0 instructions: 15000001 cycles: 14887873 heartbeat IPC: 0.396852 cumulative IPC: 0.426097 (Simulation time: 0 hr 3 min 35 sec) 
select_counter is 523
Heartbeat CPU 0 instructions: 16000000 cycles: 17429607 heartbeat IPC: 0.393432 cumulative IPC: 0.420281 (Simulation time: 0 hr 3 min 56 sec) 
select_counter is 533
Heartbeat CPU 0 instructions: 17000000 cycles: 19956762 heartbeat IPC: 0.395702 cumulative IPC: 0.416584 (Simulation time: 0 hr 4 min 16 sec) 
select_counter is 526
Heartbeat CPU 0 instructions: 18000002 cycles: 22500946 heartbeat IPC: 0.393054 cumulative IPC: 0.41349 (Simulation time: 0 hr 4 min 38 sec) 
select_counter is 514
Heartbeat CPU 0 instructions: 19000000 cycles: 25046819 heartbeat IPC: 0.392792 cumulative IPC: 0.411083 (Simulation time: 0 hr 4 min 59 sec) 
select_counter is 1773
Heartbeat CPU 0 instructions: 20000000 cycles: 27516788 heartbeat IPC: 0.404863 cumulative IPC: 0.410453 (Simulation time: 0 hr 5 min 19 sec) 
select_counter is 1748
Heartbeat CPU 0 instructions: 21000001 cycles: 29994152 heartbeat IPC: 0.403655 cumulative IPC: 0.409825 (Simulation time: 0 hr 5 min 39 sec) 
select_counter is 1732
Heartbeat CPU 0 instructions: 22000003 cycles: 32464881 heartbeat IPC: 0.40474 cumulative IPC: 0.409397 (Simulation time: 0 hr 6 min 1 sec) 
select_counter is 1719
Heartbeat CPU 0 instructions: 23000000 cycles: 34946490 heartbeat IPC: 0.402963 cumulative IPC: 0.408894 (Simulation time: 0 hr 6 min 21 sec) 
select_counter is 1709
Heartbeat CPU 0 instructions: 24000000 cycles: 37436418 heartbeat IPC: 0.401618 cumulative IPC: 0.408366 (Simulation time: 0 hr 6 min 41 sec) 
select_counter is 1695
Heartbeat CPU 0 instructions: 25000000 cycles: 39937913 heartbeat IPC: 0.399761 cumulative IPC: 0.407781 (Simulation time: 0 hr 7 min 1 sec) 
select_counter is 1675
Heartbeat CPU 0 instructions: 26000000 cycles: 42432279 heartbeat IPC: 0.400903 cumulative IPC: 0.407344 (Simulation time: 0 hr 7 min 22 sec) 
select_counter is 1651
Heartbeat CPU 0 instructions: 27000003 cycles: 44936899 heartbeat IPC: 0.399263 cumulative IPC: 0.40686 (Simulation time: 0 hr 7 min 43 sec) 
select_counter is 1616
Heartbeat CPU 0 instructions: 28000000 cycles: 47314396 heartbeat IPC: 0.420609 cumulative IPC: 0.4076 (Simulation time: 0 hr 8 min 4 sec) 
select_counter is 1509
Heartbeat CPU 0 instructions: 29000002 cycles: 48803213 heartbeat IPC: 0.671676 cumulative IPC: 0.416212 (Simulation time: 0 hr 8 min 24 sec) 
select_counter is 1512
Heartbeat CPU 0 instructions: 30000001 cycles: 50271961 heartbeat IPC: 0.680851 cumulative IPC: 0.424462 (Simulation time: 0 hr 8 min 44 sec) 
select_counter is 1636
Heartbeat CPU 0 instructions: 31000000 cycles: 51743127 heartbeat IPC: 0.679732 cumulative IPC: 0.432191 (Simulation time: 0 hr 9 min 5 sec) 
select_counter is 1686
Heartbeat CPU 0 instructions: 32000000 cycles: 53214380 heartbeat IPC: 0.679693 cumulative IPC: 0.439464 (Simulation time: 0 hr 9 min 26 sec) 
select_counter is 1730
Heartbeat CPU 0 instructions: 33000000 cycles: 54685998 heartbeat IPC: 0.679524 cumulative IPC: 0.44632 (Simulation time: 0 hr 9 min 46 sec) 
select_counter is 1770
Heartbeat CPU 0 instructions: 34000002 cycles: 56158036 heartbeat IPC: 0.679332 cumulative IPC: 0.452791 (Simulation time: 0 hr 10 min 6 sec) 
select_counter is 1828
Heartbeat CPU 0 instructions: 35000001 cycles: 57630700 heartbeat IPC: 0.679041 cumulative IPC: 0.458907 (Simulation time: 0 hr 10 min 27 sec) 
select_counter is 1890
Heartbeat CPU 0 instructions: 36000000 cycles: 59102191 heartbeat IPC: 0.679582 cumulative IPC: 0.464711 (Simulation time: 0 hr 10 min 48 sec) 
select_counter is 1632
Heartbeat CPU 0 instructions: 37000001 cycles: 60573075 heartbeat IPC: 0.679864 cumulative IPC: 0.470223 (Simulation time: 0 hr 11 min 7 sec) 
select_counter is 1633
Heartbeat CPU 0 instructions: 38000002 cycles: 62044031 heartbeat IPC: 0.679831 cumulative IPC: 0.475458 (Simulation time: 0 hr 11 min 28 sec) 
select_counter is 1632
Heartbeat CPU 0 instructions: 39000001 cycles: 63514895 heartbeat IPC: 0.679872 cumulative IPC: 0.480439 (Simulation time: 0 hr 11 min 48 sec) 
select_counter is 1632
Heartbeat CPU 0 instructions: 40000000 cycles: 64986405 heartbeat IPC: 0.679573 cumulative IPC: 0.485178 (Simulation time: 0 hr 12 min 8 sec) 
select_counter is 1631
Heartbeat CPU 0 instructions: 41000000 cycles: 66458439 heartbeat IPC: 0.679332 cumulative IPC: 0.489693 (Simulation time: 0 hr 12 min 27 sec) 
select_counter is 1633
Heartbeat CPU 0 instructions: 42000000 cycles: 67932276 heartbeat IPC: 0.678501 cumulative IPC: 0.493989 (Simulation time: 0 hr 12 min 47 sec) 
select_counter is 1632
Heartbeat CPU 0 instructions: 43000002 cycles: 69403717 heartbeat IPC: 0.679607 cumulative IPC: 0.498111 (Simulation time: 0 hr 13 min 8 sec) 
select_counter is 1633
Heartbeat CPU 0 instructions: 44000000 cycles: 70874651 heartbeat IPC: 0.679839 cumulative IPC: 0.502058 (Simulation time: 0 hr 13 min 28 sec) 
select_counter is 1631
Heartbeat CPU 0 instructions: 45000000 cycles: 72345594 heartbeat IPC: 0.679836 cumulative IPC: 0.505838 (Simulation time: 0 hr 13 min 48 sec) 
select_counter is 1623
Heartbeat CPU 0 instructions: 46000003 cycles: 73816456 heartbeat IPC: 0.679875 cumulative IPC: 0.50946 (Simulation time: 0 hr 14 min 8 sec) 
select_counter is 1624
Heartbeat CPU 0 instructions: 47000002 cycles: 75427529 heartbeat IPC: 0.620704 cumulative IPC: 0.51194 (Simulation time: 0 hr 14 min 29 sec) 
select_counter is 1535
Heartbeat CPU 0 instructions: 48000000 cycles: 77555899 heartbeat IPC: 0.469842 cumulative IPC: 0.510736 (Simulation time: 0 hr 14 min 50 sec) 
select_counter is 1394
Heartbeat CPU 0 instructions: 49000000 cycles: 79797628 heartbeat IPC: 0.446084 cumulative IPC: 0.508845 (Simulation time: 0 hr 15 min 11 sec) 
select_counter is 1609
Heartbeat CPU 0 instructions: 50000003 cycles: 82080790 heartbeat IPC: 0.43799 cumulative IPC: 0.506795 (Simulation time: 0 hr 15 min 32 sec) 
select_counter is 1774
Heartbeat CPU 0 instructions: 51000000 cycles: 84381439 heartbeat IPC: 0.434659 cumulative IPC: 0.504752 (Simulation time: 0 hr 15 min 53 sec) 
select_counter is 1872
Heartbeat CPU 0 instructions: 52000000 cycles: 86660571 heartbeat IPC: 0.438764 cumulative IPC: 0.502951 (Simulation time: 0 hr 16 min 15 sec) 
select_counter is 1923
Heartbeat CPU 0 instructions: 53000003 cycles: 88911442 heartbeat IPC: 0.444274 cumulative IPC: 0.501411 (Simulation time: 0 hr 16 min 37 sec) 
select_counter is 1902
Heartbeat CPU 0 instructions: 54000003 cycles: 91152007 heartbeat IPC: 0.446316 cumulative IPC: 0.500008 (Simulation time: 0 hr 16 min 59 sec) 
select_counter is 1606
Heartbeat CPU 0 instructions: 55000002 cycles: 93383281 heartbeat IPC: 0.448174 cumulative IPC: 0.498726 (Simulation time: 0 hr 17 min 21 sec) 
select_counter is 1603
Heartbeat CPU 0 instructions: 56000000 cycles: 95647655 heartbeat IPC: 0.441622 cumulative IPC: 0.497328 (Simulation time: 0 hr 17 min 42 sec) 
select_counter is 1597
Heartbeat CPU 0 instructions: 57000001 cycles: 97886984 heartbeat IPC: 0.446563 cumulative IPC: 0.496128 (Simulation time: 0 hr 18 min 2 sec) 
select_counter is 1582
Heartbeat CPU 0 instructions: 58000000 cycles: 100126016 heartbeat IPC: 0.446621 cumulative IPC: 0.494985 (Simulation time: 0 hr 18 min 23 sec) 
select_counter is 1590
Heartbeat CPU 0 instructions: 59000000 cycles: 102364101 heartbeat IPC: 0.446811 cumulative IPC: 0.493899 (Simulation time: 0 hr 18 min 44 sec) 
select_counter is 1572
Heartbeat CPU 0 instructions: 60000000 cycles: 104578782 heartbeat IPC: 0.451532 cumulative IPC: 0.492973 (Simulation time: 0 hr 19 min 6 sec) 
select_counter is 1552
Heartbeat CPU 0 instructions: 61000001 cycles: 106802522 heartbeat IPC: 0.449693 cumulative IPC: 0.492045 (Simulation time: 0 hr 19 min 27 sec) 
select_counter is 1512
Heartbeat CPU 0 instructions: 62000000 cycles: 109047217 heartbeat IPC: 0.445494 cumulative IPC: 0.491058 (Simulation time: 0 hr 19 min 48 sec) 
select_counter is 1487
Heartbeat CPU 0 instructions: 63000001 cycles: 111175160 heartbeat IPC: 0.469938 cumulative IPC: 0.490642 (Simulation time: 0 hr 20 min 8 sec) 
select_counter is 1014
Heartbeat CPU 0 instructions: 64000000 cycles: 113299424 heartbeat IPC: 0.470751 cumulative IPC: 0.490258 (Simulation time: 0 hr 20 min 27 sec) 
select_counter is 409
Heartbeat CPU 0 instructions: 65000000 cycles: 115394399 heartbeat IPC: 0.477333 cumulative IPC: 0.490017 (Simulation time: 0 hr 20 min 46 sec) 
select_counter is 500
Heartbeat CPU 0 instructions: 66000001 cycles: 117392321 heartbeat IPC: 0.500521 cumulative IPC: 0.490201 (Simulation time: 0 hr 21 min 4 sec) 
select_counter is 694
Heartbeat CPU 0 instructions: 67000000 cycles: 119356421 heartbeat IPC: 0.509139 cumulative IPC: 0.490521 (Simulation time: 0 hr 21 min 23 sec) 
select_counter is 894
Heartbeat CPU 0 instructions: 68000000 cycles: 121365150 heartbeat IPC: 0.497827 cumulative IPC: 0.490645 (Simulation time: 0 hr 21 min 43 sec) 
select_counter is 1072
Heartbeat CPU 0 instructions: 69000002 cycles: 123365769 heartbeat IPC: 0.499846 cumulative IPC: 0.490798 (Simulation time: 0 hr 22 min 2 sec) 
select_counter is 1210
Heartbeat CPU 0 instructions: 70000001 cycles: 125433924 heartbeat IPC: 0.483522 cumulative IPC: 0.490675 (Simulation time: 0 hr 22 min 22 sec) 
select_counter is 1265
Heartbeat CPU 0 instructions: 71000000 cycles: 127495962 heartbeat IPC: 0.484957 cumulative IPC: 0.49058 (Simulation time: 0 hr 22 min 42 sec) 
select_counter is 1121
Heartbeat CPU 0 instructions: 72000000 cycles: 129531215 heartbeat IPC: 0.491339 cumulative IPC: 0.490593 (Simulation time: 0 hr 23 min 2 sec) 
select_counter is 1118
Heartbeat CPU 0 instructions: 73000002 cycles: 131600244 heartbeat IPC: 0.483319 cumulative IPC: 0.490475 (Simulation time: 0 hr 23 min 24 sec) 
select_counter is 1153
Heartbeat CPU 0 instructions: 74000002 cycles: 133622501 heartbeat IPC: 0.494497 cumulative IPC: 0.490538 (Simulation time: 0 hr 23 min 43 sec) 
select_counter is 1187
Heartbeat CPU 0 instructions: 75000001 cycles: 135698625 heartbeat IPC: 0.481666 cumulative IPC: 0.490399 (Simulation time: 0 hr 24 min 5 sec) 
select_counter is 1188
Heartbeat CPU 0 instructions: 76000000 cycles: 137750838 heartbeat IPC: 0.487278 cumulative IPC: 0.490351 (Simulation time: 0 hr 24 min 25 sec) 
select_counter is 1194
Heartbeat CPU 0 instructions: 77000000 cycles: 139781216 heartbeat IPC: 0.492519 cumulative IPC: 0.490383 (Simulation time: 0 hr 24 min 44 sec) 
select_counter is 1212
Heartbeat CPU 0 instructions: 78000002 cycles: 141873852 heartbeat IPC: 0.477867 cumulative IPC: 0.490195 (Simulation time: 0 hr 25 min 3 sec) 
select_counter is 1202
Heartbeat CPU 0 instructions: 79000001 cycles: 143912236 heartbeat IPC: 0.490584 cumulative IPC: 0.4902 (Simulation time: 0 hr 25 min 22 sec) 
select_counter is 1184
Heartbeat CPU 0 instructions: 80000000 cycles: 145997414 heartbeat IPC: 0.479575 cumulative IPC: 0.490045 (Simulation time: 0 hr 25 min 41 sec) 
select_counter is 1172
Heartbeat CPU 0 instructions: 81000000 cycles: 148058788 heartbeat IPC: 0.485113 cumulative IPC: 0.489975 (Simulation time: 0 hr 26 min 1 sec) 
select_counter is 1150
Heartbeat CPU 0 instructions: 82000000 cycles: 150113848 heartbeat IPC: 0.486604 cumulative IPC: 0.489928 (Simulation time: 0 hr 26 min 20 sec) 
select_counter is 1172
Heartbeat CPU 0 instructions: 83000001 cycles: 152410087 heartbeat IPC: 0.435495 cumulative IPC: 0.48909 (Simulation time: 0 hr 26 min 42 sec) 
select_counter is 464
Heartbeat CPU 0 instructions: 84000000 cycles: 154882403 heartbeat IPC: 0.404479 cumulative IPC: 0.487712 (Simulation time: 0 hr 27 min 3 sec) 
select_counter is 58
Heartbeat CPU 0 instructions: 85000001 cycles: 157275457 heartbeat IPC: 0.417876 cumulative IPC: 0.486627 (Simulation time: 0 hr 27 min 25 sec) 
select_counter is 259
Heartbeat CPU 0 instructions: 86000001 cycles: 159622791 heartbeat IPC: 0.426015 cumulative IPC: 0.485718 (Simulation time: 0 hr 27 min 47 sec) 
select_counter is 524
Heartbeat CPU 0 instructions: 87000003 cycles: 161963750 heartbeat IPC: 0.427176 cumulative IPC: 0.484855 (Simulation time: 0 hr 28 min 9 sec) 
select_counter is 746
Heartbeat CPU 0 instructions: 88000000 cycles: 164364112 heartbeat IPC: 0.416603 cumulative IPC: 0.483839 (Simulation time: 0 hr 28 min 32 sec) 
select_counter is 847
Heartbeat CPU 0 instructions: 89000001 cycles: 166775193 heartbeat IPC: 0.414752 cumulative IPC: 0.482821 (Simulation time: 0 hr 28 min 55 sec) 
select_counter is 850
Heartbeat CPU 0 instructions: 90000000 cycles: 169169436 heartbeat IPC: 0.417668 cumulative IPC: 0.481881 (Simulation time: 0 hr 29 min 17 sec) 
select_counter is 793
Heartbeat CPU 0 instructions: 91000002 cycles: 171548552 heartbeat IPC: 0.420325 cumulative IPC: 0.481012 (Simulation time: 0 hr 29 min 38 sec) 
select_counter is 823
Heartbeat CPU 0 instructions: 92000000 cycles: 173918805 heartbeat IPC: 0.421895 cumulative IPC: 0.480191 (Simulation time: 0 hr 29 min 59 sec) 
select_counter is 861
Heartbeat CPU 0 instructions: 93000003 cycles: 176312658 heartbeat IPC: 0.417738 cumulative IPC: 0.479328 (Simulation time: 0 hr 30 min 19 sec) 
select_counter is 868
Heartbeat CPU 0 instructions: 94000000 cycles: 178705727 heartbeat IPC: 0.417872 cumulative IPC: 0.47849 (Simulation time: 0 hr 30 min 39 sec) 
select_counter is 878
Heartbeat CPU 0 instructions: 95000002 cycles: 181121599 heartbeat IPC: 0.41393 cumulative IPC: 0.477614 (Simulation time: 0 hr 30 min 59 sec) 
select_counter is 873
Heartbeat CPU 0 instructions: 96000000 cycles: 183544232 heartbeat IPC: 0.412773 cumulative IPC: 0.476743 (Simulation time: 0 hr 31 min 19 sec) 
select_counter is 849
Heartbeat CPU 0 instructions: 97000001 cycles: 185958647 heartbeat IPC: 0.414179 cumulative IPC: 0.475916 (Simulation time: 0 hr 31 min 39 sec) 
select_counter is 822
Heartbeat CPU 0 instructions: 98000002 cycles: 188351621 heartbeat IPC: 0.41789 cumulative IPC: 0.475167 (Simulation time: 0 hr 31 min 58 sec) 
select_counter is 856
Heartbeat CPU 0 instructions: 99000002 cycles: 189979722 heartbeat IPC: 0.614213 cumulative IPC: 0.476378 (Simulation time: 0 hr 32 min 18 sec) 
select_counter is 357
Heartbeat CPU 0 instructions: 100000000 cycles: 191405097 heartbeat IPC: 0.701568 cumulative IPC: 0.478083 (Simulation time: 0 hr 32 min 41 sec) 
select_counter is 172
Heartbeat CPU 0 instructions: 101000000 cycles: 192828119 heartbeat IPC: 0.70273 cumulative IPC: 0.479769 (Simulation time: 0 hr 33 min 0 sec) 
select_counter is 300
Heartbeat CPU 0 instructions: 102000003 cycles: 194248324 heartbeat IPC: 0.704126 cumulative IPC: 0.481436 (Simulation time: 0 hr 33 min 18 sec) 
select_counter is 466
Heartbeat CPU 0 instructions: 103000002 cycles: 195667663 heartbeat IPC: 0.704553 cumulative IPC: 0.483081 (Simulation time: 0 hr 33 min 37 sec) 
select_counter is 594
Heartbeat CPU 0 instructions: 104000000 cycles: 197094010 heartbeat IPC: 0.70109 cumulative IPC: 0.484685 (Simulation time: 0 hr 34 min 0 sec) 
select_counter is 752
Heartbeat CPU 0 instructions: 105000000 cycles: 198518090 heartbeat IPC: 0.702208 cumulative IPC: 0.48627 (Simulation time: 0 hr 34 min 24 sec) 
select_counter is 806
Heartbeat CPU 0 instructions: 106000001 cycles: 199940744 heartbeat IPC: 0.702912 cumulative IPC: 0.487836 (Simulation time: 0 hr 34 min 43 sec) 
select_counter is 849
Heartbeat CPU 0 instructions: 107000000 cycles: 201365928 heartbeat IPC: 0.701663 cumulative IPC: 0.489374 (Simulation time: 0 hr 35 min 2 sec) 
select_counter is 849
Heartbeat CPU 0 instructions: 108000000 cycles: 202793581 heartbeat IPC: 0.70045 cumulative IPC: 0.490883 (Simulation time: 0 hr 35 min 22 sec) 
select_counter is 881
Heartbeat CPU 0 instructions: 109000001 cycles: 204219229 heartbeat IPC: 0.701436 cumulative IPC: 0.492376 (Simulation time: 0 hr 35 min 41 sec) 
select_counter is 917
Heartbeat CPU 0 instructions: 110000000 cycles: 205645247 heartbeat IPC: 0.701253 cumulative IPC: 0.493847 (Simulation time: 0 hr 35 min 57 sec) 
select_counter is 925
Finished CPU 0 instructions: 100000001 cycles: 202491797 cummulative IPC: 0.493847 (Simulation time: 0 hr 35 min 57 sec) 

ChampSim completed all CPUs

Region of Interest Statistics

CPU 0 cummulative IPC: 0.493847 instructions: 100000001 cycles: 202491797
LLC TOTAL     ACCESS:    4047262  HIT:     156634  MISS:    3890628
LLC LOAD      ACCESS:     833915  HIT:      25753  MISS:     808162
LLC RFO       ACCESS:         24  HIT:         10  MISS:         14
LLC PREFETCH  ACCESS:    2172887  HIT:      67443  MISS:    2105444
LLC WRITEBACK ACCESS:    1040436  HIT:      63428  MISS:     977008
Ship samples: 
6, 53, 69, 100, 144, 169, 223, 237, 285, 295, 324, 371, 387, 429, 466, 483, 528, 570, 599, 621, 652, 700, 719, 758, 792, 821, 854, 889, 918, 949, 989, 1011, 1031, 1069, 1109, 1138, 1169, 1211, 1235, 1267, 1309, 1318, 1368, 1385, 1434, 1457, 1483, 1517, 1548, 1593, 1615, 1646, 1672, 1724, 1745, 1771, 1823, 1845, 1873, 1894, 1949, 1955, 2012, 2044, 
Lime duel samples: 
1, 35, 66, 127, 152, 173, 212, 249, 267, 302, 329, 376, 397, 442, 449, 493, 536, 568, 597, 638, 648, 694, 715, 746, 780, 829, 860, 873, 899, 954, 963, 1005, 1045, 1064, 1094, 1141, 1164, 1213, 1243, 1256, 1296, 1327, 1350, 1407, 1422, 1470, 1495, 1508, 1555, 1594, 1602, 1643, 1664, 1705, 1755, 1775, 1807, 1842, 1879, 1919, 1931, 1975, 1993, 2032, 
Lime samples: 
1, 152, 267, 397, 536, 648, 780, 899, 1045, 1164, 1296, 1422, 1555, 1664, 1807, 1931, 
Insertion Distribution: 
	LOAD 3442 0 0 0 0 0 17692 302655 
	RFO 0 0 0 0 0 0 4 0 
	PREF 0 8486 0 0 0 0 49656 1072719 
	WRITEBACK 0 0 0 0 0 0 0 544089 
Total Prefetch Downgrades: 1605
