
*** ChampSim Multicore Out-of-Order Simulator ***

Warmup Instructions: 10000000
Simulation Instructions: 100000000
Configuration: 2
Number of CPUs: 1
LLC sets: 2048
LLC ways: 16
Off-chip DRAM Channels: 1 Width: 64-bit Data Rate: 1600 MT/s

CPU 0 runs /datasets/cs240c-wi22-a00-public/data/Assignment2-gz/GemsFDTD_712B.trace.gz
CPU 0 L1D next line prefetcher
CPU 0 L2C IP-based stride prefetcher
Heartbeat CPU 0 instructions: 1000003 cycles: 634340 heartbeat IPC: 1.57645 cumulative IPC: 1.57645 (Simulation time: 0 hr 0 min 33 sec) 
select_counter is 732
Heartbeat CPU 0 instructions: 2000000 cycles: 1268266 heartbeat IPC: 1.57747 cumulative IPC: 1.57696 (Simulation time: 0 hr 1 min 5 sec) 
select_counter is 507
Heartbeat CPU 0 instructions: 3000000 cycles: 1902385 heartbeat IPC: 1.57699 cumulative IPC: 1.57697 (Simulation time: 0 hr 1 min 36 sec) 
select_counter is 485
Heartbeat CPU 0 instructions: 4000000 cycles: 2536276 heartbeat IPC: 1.57756 cumulative IPC: 1.57712 (Simulation time: 0 hr 2 min 8 sec) 
select_counter is 450
Heartbeat CPU 0 instructions: 5000003 cycles: 3170666 heartbeat IPC: 1.57632 cumulative IPC: 1.57696 (Simulation time: 0 hr 2 min 39 sec) 
select_counter is 451
Heartbeat CPU 0 instructions: 6000002 cycles: 3804805 heartbeat IPC: 1.57694 cumulative IPC: 1.57695 (Simulation time: 0 hr 3 min 12 sec) 
select_counter is 454
Heartbeat CPU 0 instructions: 7000001 cycles: 4439229 heartbeat IPC: 1.57623 cumulative IPC: 1.57685 (Simulation time: 0 hr 3 min 39 sec) 
select_counter is 477
Heartbeat CPU 0 instructions: 8000000 cycles: 5073259 heartbeat IPC: 1.57721 cumulative IPC: 1.5769 (Simulation time: 0 hr 4 min 8 sec) 
select_counter is 453
Heartbeat CPU 0 instructions: 9000001 cycles: 5707581 heartbeat IPC: 1.57649 cumulative IPC: 1.57685 (Simulation time: 0 hr 4 min 36 sec) 
select_counter is 442
Heartbeat CPU 0 instructions: 10000002 cycles: 6341588 heartbeat IPC: 1.57727 cumulative IPC: 1.57689 (Simulation time: 0 hr 5 min 3 sec) 
select_counter is 435

Warmup complete CPU 0 instructions: 10000002 cycles: 6341588 (Simulation time: 0 hr 5 min 3 sec) 

Heartbeat CPU 0 instructions: 11000001 cycles: 7970105 heartbeat IPC: 0.614055 cumulative IPC: 0.614055 (Simulation time: 0 hr 5 min 36 sec) 
select_counter is 439
Heartbeat CPU 0 instructions: 12000000 cycles: 9608785 heartbeat IPC: 0.610247 cumulative IPC: 0.612145 (Simulation time: 0 hr 6 min 5 sec) 
select_counter is 426
Heartbeat CPU 0 instructions: 13000000 cycles: 11227339 heartbeat IPC: 0.617835 cumulative IPC: 0.61403 (Simulation time: 0 hr 6 min 36 sec) 
select_counter is 398
Heartbeat CPU 0 instructions: 14000001 cycles: 12837292 heartbeat IPC: 0.621137 cumulative IPC: 0.615791 (Simulation time: 0 hr 7 min 10 sec) 
select_counter is 368
Heartbeat CPU 0 instructions: 15000001 cycles: 14434385 heartbeat IPC: 0.626138 cumulative IPC: 0.617833 (Simulation time: 0 hr 7 min 44 sec) 
select_counter is 365
Heartbeat CPU 0 instructions: 16000000 cycles: 16062173 heartbeat IPC: 0.61433 cumulative IPC: 0.617247 (Simulation time: 0 hr 8 min 18 sec) 
select_counter is 375
Heartbeat CPU 0 instructions: 17000001 cycles: 17679290 heartbeat IPC: 0.618385 cumulative IPC: 0.617409 (Simulation time: 0 hr 8 min 50 sec) 
select_counter is 402
Heartbeat CPU 0 instructions: 18000003 cycles: 19322217 heartbeat IPC: 0.608671 cumulative IPC: 0.616303 (Simulation time: 0 hr 9 min 22 sec) 
select_counter is 430
Heartbeat CPU 0 instructions: 19000003 cycles: 20929175 heartbeat IPC: 0.622294 cumulative IPC: 0.616963 (Simulation time: 0 hr 9 min 54 sec) 
select_counter is 453
Heartbeat CPU 0 instructions: 20000000 cycles: 22530297 heartbeat IPC: 0.62456 cumulative IPC: 0.617714 (Simulation time: 0 hr 10 min 26 sec) 
select_counter is 448
Heartbeat CPU 0 instructions: 21000002 cycles: 24148043 heartbeat IPC: 0.618145 cumulative IPC: 0.617754 (Simulation time: 0 hr 11 min 1 sec) 
select_counter is 444
Heartbeat CPU 0 instructions: 22000001 cycles: 25779512 heartbeat IPC: 0.612944 cumulative IPC: 0.61735 (Simulation time: 0 hr 11 min 33 sec) 
select_counter is 423
Heartbeat CPU 0 instructions: 23000002 cycles: 27388643 heartbeat IPC: 0.621454 cumulative IPC: 0.617664 (Simulation time: 0 hr 12 min 5 sec) 
select_counter is 444
Heartbeat CPU 0 instructions: 24000000 cycles: 29036185 heartbeat IPC: 0.606964 cumulative IPC: 0.616887 (Simulation time: 0 hr 12 min 36 sec) 
select_counter is 452
Heartbeat CPU 0 instructions: 25000000 cycles: 30660391 heartbeat IPC: 0.615685 cumulative IPC: 0.616807 (Simulation time: 0 hr 13 min 8 sec) 
select_counter is 431
Heartbeat CPU 0 instructions: 26000002 cycles: 32276351 heartbeat IPC: 0.618828 cumulative IPC: 0.616933 (Simulation time: 0 hr 13 min 41 sec) 
select_counter is 438
Heartbeat CPU 0 instructions: 27000002 cycles: 33906309 heartbeat IPC: 0.613513 cumulative IPC: 0.61673 (Simulation time: 0 hr 14 min 17 sec) 
select_counter is 411
Heartbeat CPU 0 instructions: 28000000 cycles: 35518660 heartbeat IPC: 0.620211 cumulative IPC: 0.616923 (Simulation time: 0 hr 14 min 49 sec) 
select_counter is 394
Heartbeat CPU 0 instructions: 29000002 cycles: 37131239 heartbeat IPC: 0.620126 cumulative IPC: 0.61709 (Simulation time: 0 hr 15 min 25 sec) 
select_counter is 399
Heartbeat CPU 0 instructions: 30000003 cycles: 38737047 heartbeat IPC: 0.62274 cumulative IPC: 0.61737 (Simulation time: 0 hr 15 min 56 sec) 
select_counter is 416
Heartbeat CPU 0 instructions: 31000001 cycles: 40356856 heartbeat IPC: 0.617356 cumulative IPC: 0.61737 (Simulation time: 0 hr 16 min 29 sec) 
select_counter is 385
Heartbeat CPU 0 instructions: 32000000 cycles: 41979365 heartbeat IPC: 0.616329 cumulative IPC: 0.617322 (Simulation time: 0 hr 17 min 3 sec) 
select_counter is 357
Heartbeat CPU 0 instructions: 33000000 cycles: 43594627 heartbeat IPC: 0.619095 cumulative IPC: 0.617399 (Simulation time: 0 hr 17 min 33 sec) 
select_counter is 335
Heartbeat CPU 0 instructions: 34000001 cycles: 45181697 heartbeat IPC: 0.630093 cumulative IPC: 0.617918 (Simulation time: 0 hr 18 min 5 sec) 
select_counter is 321
Heartbeat CPU 0 instructions: 35000000 cycles: 46797529 heartbeat IPC: 0.618876 cumulative IPC: 0.617956 (Simulation time: 0 hr 18 min 37 sec) 
select_counter is 312
Heartbeat CPU 0 instructions: 36000000 cycles: 48418792 heartbeat IPC: 0.616803 cumulative IPC: 0.617912 (Simulation time: 0 hr 19 min 12 sec) 
select_counter is 303
Heartbeat CPU 0 instructions: 37000001 cycles: 50016875 heartbeat IPC: 0.62575 cumulative IPC: 0.618199 (Simulation time: 0 hr 19 min 45 sec) 
select_counter is 288
Heartbeat CPU 0 instructions: 38000003 cycles: 51619069 heartbeat IPC: 0.624145 cumulative IPC: 0.618409 (Simulation time: 0 hr 20 min 16 sec) 
select_counter is 280
Heartbeat CPU 0 instructions: 39000000 cycles: 53254549 heartbeat IPC: 0.611439 cumulative IPC: 0.618166 (Simulation time: 0 hr 20 min 49 sec) 
select_counter is 276
Heartbeat CPU 0 instructions: 40000000 cycles: 54835402 heartbeat IPC: 0.63257 cumulative IPC: 0.618636 (Simulation time: 0 hr 21 min 21 sec) 
select_counter is 240
Heartbeat CPU 0 instructions: 41000003 cycles: 56439573 heartbeat IPC: 0.623377 cumulative IPC: 0.618787 (Simulation time: 0 hr 21 min 53 sec) 
select_counter is 245
Heartbeat CPU 0 instructions: 42000000 cycles: 58064031 heartbeat IPC: 0.615588 cumulative IPC: 0.618687 (Simulation time: 0 hr 22 min 26 sec) 
select_counter is 246
Heartbeat CPU 0 instructions: 43000001 cycles: 59685638 heartbeat IPC: 0.616673 cumulative IPC: 0.618626 (Simulation time: 0 hr 22 min 58 sec) 
select_counter is 213
Heartbeat CPU 0 instructions: 44000000 cycles: 61294370 heartbeat IPC: 0.621607 cumulative IPC: 0.618713 (Simulation time: 0 hr 23 min 27 sec) 
select_counter is 235
Heartbeat CPU 0 instructions: 45000002 cycles: 62900472 heartbeat IPC: 0.622627 cumulative IPC: 0.618824 (Simulation time: 0 hr 23 min 56 sec) 
select_counter is 238
Heartbeat CPU 0 instructions: 46000000 cycles: 64490841 heartbeat IPC: 0.628784 cumulative IPC: 0.619096 (Simulation time: 0 hr 24 min 30 sec) 
select_counter is 213
Heartbeat CPU 0 instructions: 47000001 cycles: 66114143 heartbeat IPC: 0.616029 cumulative IPC: 0.619013 (Simulation time: 0 hr 24 min 58 sec) 
select_counter is 187
Heartbeat CPU 0 instructions: 48000000 cycles: 67726921 heartbeat IPC: 0.620048 cumulative IPC: 0.61904 (Simulation time: 0 hr 25 min 26 sec) 
select_counter is 160
Heartbeat CPU 0 instructions: 49000000 cycles: 69322370 heartbeat IPC: 0.626783 cumulative IPC: 0.619236 (Simulation time: 0 hr 25 min 56 sec) 
select_counter is 121
Heartbeat CPU 0 instructions: 50000001 cycles: 70943665 heartbeat IPC: 0.616791 cumulative IPC: 0.619175 (Simulation time: 0 hr 26 min 24 sec) 
select_counter is 69
Heartbeat CPU 0 instructions: 51000002 cycles: 72570183 heartbeat IPC: 0.614811 cumulative IPC: 0.619068 (Simulation time: 0 hr 26 min 53 sec) 
select_counter is 55
Heartbeat CPU 0 instructions: 52000000 cycles: 74185349 heartbeat IPC: 0.61913 cumulative IPC: 0.619069 (Simulation time: 0 hr 27 min 23 sec) 
select_counter is 39
Heartbeat CPU 0 instructions: 53000000 cycles: 75826971 heartbeat IPC: 0.609154 cumulative IPC: 0.618835 (Simulation time: 0 hr 27 min 53 sec) 
select_counter is 36
Heartbeat CPU 0 instructions: 54000000 cycles: 77421512 heartbeat IPC: 0.62714 cumulative IPC: 0.619021 (Simulation time: 0 hr 28 min 22 sec) 
select_counter is 41
Heartbeat CPU 0 instructions: 55000003 cycles: 79014506 heartbeat IPC: 0.627751 cumulative IPC: 0.619213 (Simulation time: 0 hr 28 min 52 sec) 
select_counter is 39
Heartbeat CPU 0 instructions: 56000000 cycles: 80635638 heartbeat IPC: 0.616851 cumulative IPC: 0.619161 (Simulation time: 0 hr 29 min 20 sec) 
select_counter is 31
Heartbeat CPU 0 instructions: 57000000 cycles: 82292514 heartbeat IPC: 0.603545 cumulative IPC: 0.618821 (Simulation time: 0 hr 29 min 50 sec) 
select_counter is 15
Heartbeat CPU 0 instructions: 58000001 cycles: 83901164 heartbeat IPC: 0.62164 cumulative IPC: 0.618879 (Simulation time: 0 hr 30 min 17 sec) 
select_counter is 2037
Heartbeat CPU 0 instructions: 59000001 cycles: 85510269 heartbeat IPC: 0.621463 cumulative IPC: 0.618932 (Simulation time: 0 hr 30 min 44 sec) 
select_counter is 2047
Heartbeat CPU 0 instructions: 60000000 cycles: 87134120 heartbeat IPC: 0.615819 cumulative IPC: 0.618869 (Simulation time: 0 hr 31 min 11 sec) 
select_counter is 2037
Heartbeat CPU 0 instructions: 61000001 cycles: 88717602 heartbeat IPC: 0.63152 cumulative IPC: 0.619112 (Simulation time: 0 hr 31 min 37 sec) 
select_counter is 2036
Heartbeat CPU 0 instructions: 62000000 cycles: 90307948 heartbeat IPC: 0.628793 cumulative IPC: 0.619296 (Simulation time: 0 hr 32 min 5 sec) 
select_counter is 2025
Heartbeat CPU 0 instructions: 63000002 cycles: 91915735 heartbeat IPC: 0.621974 cumulative IPC: 0.619346 (Simulation time: 0 hr 32 min 34 sec) 
select_counter is 2021
Heartbeat CPU 0 instructions: 64000000 cycles: 93535062 heartbeat IPC: 0.617539 cumulative IPC: 0.619312 (Simulation time: 0 hr 33 min 0 sec) 
select_counter is 2012
Heartbeat CPU 0 instructions: 65000003 cycles: 95162967 heartbeat IPC: 0.614288 cumulative IPC: 0.61922 (Simulation time: 0 hr 33 min 25 sec) 
select_counter is 2002
Heartbeat CPU 0 instructions: 66000000 cycles: 96759584 heartbeat IPC: 0.626322 cumulative IPC: 0.619346 (Simulation time: 0 hr 33 min 56 sec) 
select_counter is 1996
Heartbeat CPU 0 instructions: 67000000 cycles: 98357938 heartbeat IPC: 0.625644 cumulative IPC: 0.619455 (Simulation time: 0 hr 34 min 26 sec) 
select_counter is 2032
Heartbeat CPU 0 instructions: 68000000 cycles: 99945796 heartbeat IPC: 0.629779 cumulative IPC: 0.61963 (Simulation time: 0 hr 34 min 52 sec) 
select_counter is 1979
Heartbeat CPU 0 instructions: 69000001 cycles: 101531922 heartbeat IPC: 0.630468 cumulative IPC: 0.619811 (Simulation time: 0 hr 35 min 18 sec) 
select_counter is 1932
Heartbeat CPU 0 instructions: 70000002 cycles: 103165883 heartbeat IPC: 0.61201 cumulative IPC: 0.619679 (Simulation time: 0 hr 35 min 44 sec) 
select_counter is 1917
Heartbeat CPU 0 instructions: 71000002 cycles: 104825626 heartbeat IPC: 0.602503 cumulative IPC: 0.61939 (Simulation time: 0 hr 36 min 6 sec) 
select_counter is 1878
Heartbeat CPU 0 instructions: 72000000 cycles: 106574675 heartbeat IPC: 0.571738 cumulative IPC: 0.618558 (Simulation time: 0 hr 36 min 30 sec) 
select_counter is 1766
Heartbeat CPU 0 instructions: 73000000 cycles: 108290081 heartbeat IPC: 0.582952 cumulative IPC: 0.617959 (Simulation time: 0 hr 36 min 54 sec) 
select_counter is 1761
Heartbeat CPU 0 instructions: 74000001 cycles: 110037533 heartbeat IPC: 0.572262 cumulative IPC: 0.617189 (Simulation time: 0 hr 37 min 18 sec) 
select_counter is 1818
Heartbeat CPU 0 instructions: 75000003 cycles: 111769741 heartbeat IPC: 0.577299 cumulative IPC: 0.616534 (Simulation time: 0 hr 37 min 40 sec) 
select_counter is 1825
Heartbeat CPU 0 instructions: 76000000 cycles: 113489975 heartbeat IPC: 0.581315 cumulative IPC: 0.615968 (Simulation time: 0 hr 38 min 2 sec) 
select_counter is 1847
Heartbeat CPU 0 instructions: 77000000 cycles: 115227683 heartbeat IPC: 0.575471 cumulative IPC: 0.615322 (Simulation time: 0 hr 38 min 22 sec) 
select_counter is 1850
Heartbeat CPU 0 instructions: 78000001 cycles: 116954019 heartbeat IPC: 0.579262 cumulative IPC: 0.614759 (Simulation time: 0 hr 38 min 42 sec) 
select_counter is 1752
Heartbeat CPU 0 instructions: 79000003 cycles: 118700092 heartbeat IPC: 0.572715 cumulative IPC: 0.614106 (Simulation time: 0 hr 39 min 2 sec) 
select_counter is 1796
Heartbeat CPU 0 instructions: 80000000 cycles: 120455718 heartbeat IPC: 0.569596 cumulative IPC: 0.613421 (Simulation time: 0 hr 39 min 22 sec) 
select_counter is 1812
Heartbeat CPU 0 instructions: 81000001 cycles: 122199914 heartbeat IPC: 0.573331 cumulative IPC: 0.612817 (Simulation time: 0 hr 39 min 42 sec) 
select_counter is 1908
Heartbeat CPU 0 instructions: 82000000 cycles: 123945953 heartbeat IPC: 0.572724 cumulative IPC: 0.612222 (Simulation time: 0 hr 40 min 2 sec) 
select_counter is 1892
Heartbeat CPU 0 instructions: 83000001 cycles: 125679417 heartbeat IPC: 0.57688 cumulative IPC: 0.611709 (Simulation time: 0 hr 40 min 19 sec) 
select_counter is 1869
Heartbeat CPU 0 instructions: 84000000 cycles: 127423802 heartbeat IPC: 0.573267 cumulative IPC: 0.611155 (Simulation time: 0 hr 40 min 36 sec) 
select_counter is 1856
Heartbeat CPU 0 instructions: 85000000 cycles: 129164647 heartbeat IPC: 0.574434 cumulative IPC: 0.610635 (Simulation time: 0 hr 40 min 53 sec) 
select_counter is 1942
Heartbeat CPU 0 instructions: 86000000 cycles: 130894925 heartbeat IPC: 0.577942 cumulative IPC: 0.61018 (Simulation time: 0 hr 41 min 8 sec) 
select_counter is 2004
Heartbeat CPU 0 instructions: 87000001 cycles: 132634691 heartbeat IPC: 0.574791 cumulative IPC: 0.609693 (Simulation time: 0 hr 41 min 24 sec) 
select_counter is 2016
Heartbeat CPU 0 instructions: 88000000 cycles: 134375576 heartbeat IPC: 0.57442 cumulative IPC: 0.609213 (Simulation time: 0 hr 41 min 40 sec) 
select_counter is 1948
Heartbeat CPU 0 instructions: 89000003 cycles: 136126717 heartbeat IPC: 0.571058 cumulative IPC: 0.608698 (Simulation time: 0 hr 41 min 56 sec) 
select_counter is 2031
Heartbeat CPU 0 instructions: 90000000 cycles: 137868768 heartbeat IPC: 0.574034 cumulative IPC: 0.608239 (Simulation time: 0 hr 42 min 15 sec) 
select_counter is 1985
Heartbeat CPU 0 instructions: 91000001 cycles: 139611228 heartbeat IPC: 0.573902 cumulative IPC: 0.60779 (Simulation time: 0 hr 42 min 31 sec) 
select_counter is 1892
Heartbeat CPU 0 instructions: 92000000 cycles: 141362076 heartbeat IPC: 0.571151 cumulative IPC: 0.607315 (Simulation time: 0 hr 42 min 45 sec) 
select_counter is 1777
Heartbeat CPU 0 instructions: 93000003 cycles: 143100810 heartbeat IPC: 0.575133 cumulative IPC: 0.606906 (Simulation time: 0 hr 42 min 59 sec) 
select_counter is 1842
Heartbeat CPU 0 instructions: 94000002 cycles: 144844010 heartbeat IPC: 0.573657 cumulative IPC: 0.606488 (Simulation time: 0 hr 43 min 13 sec) 
select_counter is 1790
Heartbeat CPU 0 instructions: 95000001 cycles: 146599692 heartbeat IPC: 0.569579 cumulative IPC: 0.606026 (Simulation time: 0 hr 43 min 26 sec) 
select_counter is 1751
Heartbeat CPU 0 instructions: 96000000 cycles: 148341723 heartbeat IPC: 0.574042 cumulative IPC: 0.605633 (Simulation time: 0 hr 43 min 36 sec) 
select_counter is 1843
Heartbeat CPU 0 instructions: 97000003 cycles: 150094853 heartbeat IPC: 0.57041 cumulative IPC: 0.605204 (Simulation time: 0 hr 43 min 44 sec) 
select_counter is 1834
Heartbeat CPU 0 instructions: 98000000 cycles: 151834374 heartbeat IPC: 0.574869 cumulative IPC: 0.604841 (Simulation time: 0 hr 43 min 53 sec) 
select_counter is 1747
Heartbeat CPU 0 instructions: 99000001 cycles: 153580773 heartbeat IPC: 0.572607 cumulative IPC: 0.604459 (Simulation time: 0 hr 44 min 1 sec) 
select_counter is 1709
Heartbeat CPU 0 instructions: 100000000 cycles: 155330028 heartbeat IPC: 0.571671 cumulative IPC: 0.604074 (Simulation time: 0 hr 44 min 8 sec) 
select_counter is 1673
Heartbeat CPU 0 instructions: 101000001 cycles: 157062726 heartbeat IPC: 0.577135 cumulative IPC: 0.603764 (Simulation time: 0 hr 44 min 16 sec) 
select_counter is 1636
Heartbeat CPU 0 instructions: 102000002 cycles: 158798175 heartbeat IPC: 0.57622 cumulative IPC: 0.60345 (Simulation time: 0 hr 44 min 24 sec) 
select_counter is 1544
Heartbeat CPU 0 instructions: 103000000 cycles: 160528641 heartbeat IPC: 0.577878 cumulative IPC: 0.603163 (Simulation time: 0 hr 44 min 30 sec) 
select_counter is 1506
Heartbeat CPU 0 instructions: 104000000 cycles: 162273985 heartbeat IPC: 0.572953 cumulative IPC: 0.602825 (Simulation time: 0 hr 44 min 36 sec) 
select_counter is 1413
Heartbeat CPU 0 instructions: 105000000 cycles: 164009139 heartbeat IPC: 0.576318 cumulative IPC: 0.602534 (Simulation time: 0 hr 44 min 41 sec) 
select_counter is 1424
Heartbeat CPU 0 instructions: 106000002 cycles: 165731972 heartbeat IPC: 0.58044 cumulative IPC: 0.602295 (Simulation time: 0 hr 44 min 47 sec) 
select_counter is 1354
Heartbeat CPU 0 instructions: 107000000 cycles: 167478731 heartbeat IPC: 0.572488 cumulative IPC: 0.601972 (Simulation time: 0 hr 44 min 52 sec) 
select_counter is 1284
Heartbeat CPU 0 instructions: 108000000 cycles: 169209376 heartbeat IPC: 0.577819 cumulative IPC: 0.601715 (Simulation time: 0 hr 44 min 57 sec) 
select_counter is 1180
Heartbeat CPU 0 instructions: 109000003 cycles: 170951615 heartbeat IPC: 0.573976 cumulative IPC: 0.601421 (Simulation time: 0 hr 45 min 1 sec) 
select_counter is 1169
Heartbeat CPU 0 instructions: 110000000 cycles: 172688929 heartbeat IPC: 0.575599 cumulative IPC: 0.601152 (Simulation time: 0 hr 45 min 6 sec) 
select_counter is 1129
Finished CPU 0 instructions: 100000000 cycles: 166347352 cummulative IPC: 0.601152 (Simulation time: 0 hr 45 min 6 sec) 

ChampSim completed all CPUs

Region of Interest Statistics

CPU 0 cummulative IPC: 0.601152 instructions: 100000000 cycles: 166347352
LLC TOTAL     ACCESS:    5145133  HIT:     231367  MISS:    4913766
LLC LOAD      ACCESS:     521578  HIT:     107921  MISS:     413657
LLC RFO       ACCESS:         18  HIT:          0  MISS:         18
LLC PREFETCH  ACCESS:    3246230  HIT:      13885  MISS:    3232345
LLC WRITEBACK ACCESS:    1377307  HIT:     109561  MISS:    1267746
Ship samples: 
7, 56, 82, 125, 142, 187, 193, 254, 280, 305, 324, 361, 400, 442, 473, 510, 543, 555, 594, 615, 663, 680, 709, 764, 774, 824, 851, 869, 913, 955, 966, 995, 1038, 1086, 1098, 1134, 1159, 1209, 1244, 1257, 1283, 1324, 1348, 1402, 1425, 1440, 1486, 1533, 1554, 1598, 1600, 1661, 1666, 1716, 1740, 1760, 1823, 1830, 1886, 1913, 1941, 1958, 2013, 2016, 
Lime duel samples: 
12, 63, 86, 121, 144, 186, 219, 226, 259, 288, 347, 358, 410, 431, 471, 487, 536, 565, 600, 635, 653, 674, 728, 742, 797, 813, 842, 866, 899, 959, 971, 1017, 1029, 1070, 1089, 1125, 1153, 1206, 1228, 1269, 1282, 1314, 1366, 1393, 1429, 1461, 1495, 1508, 1565, 1595, 1628, 1644, 1671, 1719, 1758, 1789, 1807, 1836, 1859, 1888, 1935, 1977, 1987, 2019, 
Lime samples: 
12, 144, 259, 410, 536, 653, 797, 899, 1029, 1153, 1282, 1429, 1565, 1671, 1807, 1935, 
Insertion Distribution: 
	LOAD 25338 0 0 0 0 0 6044 80865 
	RFO 0 0 0 0 0 0 0 0 
	PREF 0 3440 0 0 0 0 27952 2108729 
	WRITEBACK 0 0 0 0 0 0 0 785000 
Total Prefetch Downgrades: 1878
