
*** ChampSim Multicore Out-of-Order Simulator ***

Warmup Instructions: 10000000
Simulation Instructions: 100000000
Configuration: 2
Number of CPUs: 1
LLC sets: 2048
LLC ways: 16
Off-chip DRAM Channels: 1 Width: 64-bit Data Rate: 1600 MT/s

CPU 0 runs /datasets/cs240c-wi22-a00-public/data/Assignment2-gz/soplex_66B.trace.gz
CPU 0 L1D next line prefetcher
CPU 0 L2C IP-based stride prefetcher
Heartbeat CPU 0 instructions: 1000003 cycles: 415056 heartbeat IPC: 2.40932 cumulative IPC: 2.40932 (Simulation time: 0 hr 0 min 19 sec) 
select_counter is 929
Heartbeat CPU 0 instructions: 2000003 cycles: 837105 heartbeat IPC: 2.36939 cumulative IPC: 2.38919 (Simulation time: 0 hr 0 min 39 sec) 
select_counter is 1119
Heartbeat CPU 0 instructions: 3000003 cycles: 1241898 heartbeat IPC: 2.4704 cumulative IPC: 2.41566 (Simulation time: 0 hr 0 min 58 sec) 
select_counter is 1051
Heartbeat CPU 0 instructions: 4000000 cycles: 1626011 heartbeat IPC: 2.60339 cumulative IPC: 2.46001 (Simulation time: 0 hr 1 min 15 sec) 
select_counter is 1023
Heartbeat CPU 0 instructions: 5000000 cycles: 2040682 heartbeat IPC: 2.41155 cumulative IPC: 2.45016 (Simulation time: 0 hr 1 min 33 sec) 
select_counter is 1000
Heartbeat CPU 0 instructions: 6000000 cycles: 2514604 heartbeat IPC: 2.11005 cumulative IPC: 2.38606 (Simulation time: 0 hr 1 min 51 sec) 
select_counter is 1350
Heartbeat CPU 0 instructions: 7000002 cycles: 2887163 heartbeat IPC: 2.68414 cumulative IPC: 2.42453 (Simulation time: 0 hr 2 min 10 sec) 
select_counter is 1424
Heartbeat CPU 0 instructions: 8000000 cycles: 3312919 heartbeat IPC: 2.34876 cumulative IPC: 2.41479 (Simulation time: 0 hr 2 min 32 sec) 
select_counter is 1314
Heartbeat CPU 0 instructions: 9000001 cycles: 3751533 heartbeat IPC: 2.27991 cumulative IPC: 2.39902 (Simulation time: 0 hr 2 min 51 sec) 
select_counter is 1026
Heartbeat CPU 0 instructions: 10000002 cycles: 4163663 heartbeat IPC: 2.42642 cumulative IPC: 2.40173 (Simulation time: 0 hr 3 min 11 sec) 
select_counter is 731

Warmup complete CPU 0 instructions: 10000002 cycles: 4163663 (Simulation time: 0 hr 3 min 11 sec) 

Heartbeat CPU 0 instructions: 11000001 cycles: 7373747 heartbeat IPC: 0.311518 cumulative IPC: 0.311518 (Simulation time: 0 hr 3 min 37 sec) 
select_counter is 219
Heartbeat CPU 0 instructions: 12000000 cycles: 8745576 heartbeat IPC: 0.728953 cumulative IPC: 0.436498 (Simulation time: 0 hr 3 min 53 sec) 
select_counter is 131
Heartbeat CPU 0 instructions: 13000001 cycles: 11350170 heartbeat IPC: 0.383937 cumulative IPC: 0.417449 (Simulation time: 0 hr 4 min 15 sec) 
select_counter is 1957
Heartbeat CPU 0 instructions: 14000002 cycles: 13783556 heartbeat IPC: 0.41095 cumulative IPC: 0.415805 (Simulation time: 0 hr 4 min 37 sec) 
select_counter is 2020
Heartbeat CPU 0 instructions: 15000002 cycles: 16255685 heartbeat IPC: 0.40451 cumulative IPC: 0.413496 (Simulation time: 0 hr 4 min 57 sec) 
select_counter is 2032
Heartbeat CPU 0 instructions: 16000000 cycles: 19025454 heartbeat IPC: 0.36104 cumulative IPC: 0.40372 (Simulation time: 0 hr 5 min 19 sec) 
select_counter is 2003
Heartbeat CPU 0 instructions: 17000001 cycles: 21152620 heartbeat IPC: 0.47011 cumulative IPC: 0.412032 (Simulation time: 0 hr 5 min 45 sec) 
select_counter is 1906
Heartbeat CPU 0 instructions: 18000000 cycles: 23124826 heartbeat IPC: 0.507046 cumulative IPC: 0.421915 (Simulation time: 0 hr 6 min 8 sec) 
select_counter is 1659
Heartbeat CPU 0 instructions: 19000002 cycles: 26478878 heartbeat IPC: 0.298147 cumulative IPC: 0.403312 (Simulation time: 0 hr 6 min 34 sec) 
select_counter is 1321
Heartbeat CPU 0 instructions: 20000000 cycles: 27814083 heartbeat IPC: 0.748947 cumulative IPC: 0.422825 (Simulation time: 0 hr 6 min 49 sec) 
select_counter is 1252
Heartbeat CPU 0 instructions: 21000000 cycles: 30009031 heartbeat IPC: 0.455592 cumulative IPC: 0.425608 (Simulation time: 0 hr 7 min 10 sec) 
select_counter is 1164
Heartbeat CPU 0 instructions: 22000000 cycles: 32650192 heartbeat IPC: 0.378621 cumulative IPC: 0.421252 (Simulation time: 0 hr 7 min 34 sec) 
select_counter is 1261
Heartbeat CPU 0 instructions: 23000000 cycles: 35124070 heartbeat IPC: 0.404224 cumulative IPC: 0.419891 (Simulation time: 0 hr 7 min 54 sec) 
select_counter is 1284
Heartbeat CPU 0 instructions: 24000000 cycles: 37687085 heartbeat IPC: 0.390165 cumulative IPC: 0.417618 (Simulation time: 0 hr 8 min 17 sec) 
select_counter is 1265
Heartbeat CPU 0 instructions: 25000003 cycles: 39887749 heartbeat IPC: 0.45441 cumulative IPC: 0.419885 (Simulation time: 0 hr 8 min 45 sec) 
select_counter is 1311
Heartbeat CPU 0 instructions: 26000001 cycles: 42032724 heartbeat IPC: 0.466205 cumulative IPC: 0.422508 (Simulation time: 0 hr 9 min 8 sec) 
select_counter is 1194
Heartbeat CPU 0 instructions: 27000002 cycles: 45332826 heartbeat IPC: 0.303021 cumulative IPC: 0.41293 (Simulation time: 0 hr 9 min 36 sec) 
select_counter is 1046
Heartbeat CPU 0 instructions: 28000000 cycles: 46669461 heartbeat IPC: 0.748146 cumulative IPC: 0.423472 (Simulation time: 0 hr 9 min 51 sec) 
select_counter is 974
Heartbeat CPU 0 instructions: 29000002 cycles: 48489112 heartbeat IPC: 0.549557 cumulative IPC: 0.428648 (Simulation time: 0 hr 10 min 10 sec) 
select_counter is 947
Heartbeat CPU 0 instructions: 30000000 cycles: 51311095 heartbeat IPC: 0.35436 cumulative IPC: 0.424201 (Simulation time: 0 hr 10 min 34 sec) 
select_counter is 1071
Heartbeat CPU 0 instructions: 31000001 cycles: 53814712 heartbeat IPC: 0.399423 cumulative IPC: 0.422952 (Simulation time: 0 hr 10 min 54 sec) 
select_counter is 1117
Heartbeat CPU 0 instructions: 32000000 cycles: 56308281 heartbeat IPC: 0.401031 cumulative IPC: 0.421904 (Simulation time: 0 hr 11 min 14 sec) 
select_counter is 1100
Heartbeat CPU 0 instructions: 33000001 cycles: 59371830 heartbeat IPC: 0.326419 cumulative IPC: 0.416605 (Simulation time: 0 hr 11 min 43 sec) 
select_counter is 1110
Heartbeat CPU 0 instructions: 34000003 cycles: 61332552 heartbeat IPC: 0.510017 cumulative IPC: 0.419809 (Simulation time: 0 hr 12 min 7 sec) 
select_counter is 889
Heartbeat CPU 0 instructions: 35000003 cycles: 64287379 heartbeat IPC: 0.338429 cumulative IPC: 0.415809 (Simulation time: 0 hr 12 min 31 sec) 
select_counter is 789
Heartbeat CPU 0 instructions: 36000000 cycles: 65632028 heartbeat IPC: 0.743686 cumulative IPC: 0.422982 (Simulation time: 0 hr 12 min 47 sec) 
select_counter is 790
Heartbeat CPU 0 instructions: 37000000 cycles: 68223235 heartbeat IPC: 0.385921 cumulative IPC: 0.421483 (Simulation time: 0 hr 13 min 15 sec) 
select_counter is 763
Heartbeat CPU 0 instructions: 38000001 cycles: 70575501 heartbeat IPC: 0.425122 cumulative IPC: 0.421612 (Simulation time: 0 hr 13 min 37 sec) 
select_counter is 795
Heartbeat CPU 0 instructions: 39000003 cycles: 73051308 heartbeat IPC: 0.40391 cumulative IPC: 0.420975 (Simulation time: 0 hr 13 min 57 sec) 
select_counter is 822
Heartbeat CPU 0 instructions: 40000000 cycles: 75728713 heartbeat IPC: 0.373495 cumulative IPC: 0.419199 (Simulation time: 0 hr 14 min 22 sec) 
select_counter is 786
Heartbeat CPU 0 instructions: 41000001 cycles: 77628474 heartbeat IPC: 0.526383 cumulative IPC: 0.421971 (Simulation time: 0 hr 14 min 46 sec) 
select_counter is 817
Heartbeat CPU 0 instructions: 42000003 cycles: 79433784 heartbeat IPC: 0.553923 cumulative IPC: 0.425135 (Simulation time: 0 hr 15 min 9 sec) 
select_counter is 691
Heartbeat CPU 0 instructions: 43000000 cycles: 82715504 heartbeat IPC: 0.304717 cumulative IPC: 0.420105 (Simulation time: 0 hr 15 min 35 sec) 
select_counter is 548
Heartbeat CPU 0 instructions: 44000000 cycles: 84059400 heartbeat IPC: 0.744105 cumulative IPC: 0.425555 (Simulation time: 0 hr 15 min 52 sec) 
select_counter is 524
Heartbeat CPU 0 instructions: 45000003 cycles: 86278008 heartbeat IPC: 0.450734 cumulative IPC: 0.426235 (Simulation time: 0 hr 16 min 12 sec) 
select_counter is 517
Heartbeat CPU 0 instructions: 46000003 cycles: 88849777 heartbeat IPC: 0.388837 cumulative IPC: 0.425099 (Simulation time: 0 hr 16 min 36 sec) 
select_counter is 553
Heartbeat CPU 0 instructions: 47000001 cycles: 91252806 heartbeat IPC: 0.416141 cumulative IPC: 0.424852 (Simulation time: 0 hr 16 min 56 sec) 
select_counter is 599
Heartbeat CPU 0 instructions: 48000000 cycles: 93750726 heartbeat IPC: 0.400333 cumulative IPC: 0.424168 (Simulation time: 0 hr 17 min 15 sec) 
select_counter is 649
Heartbeat CPU 0 instructions: 49000003 cycles: 97048704 heartbeat IPC: 0.303217 cumulative IPC: 0.419874 (Simulation time: 0 hr 17 min 47 sec) 
select_counter is 868
Heartbeat CPU 0 instructions: 50000003 cycles: 103275736 heartbeat IPC: 0.16059 cumulative IPC: 0.403584 (Simulation time: 0 hr 18 min 24 sec) 
select_counter is 1169
Heartbeat CPU 0 instructions: 51000002 cycles: 105872405 heartbeat IPC: 0.385108 cumulative IPC: 0.403112 (Simulation time: 0 hr 18 min 58 sec) 
select_counter is 2045
Heartbeat CPU 0 instructions: 52000000 cycles: 109903771 heartbeat IPC: 0.248054 cumulative IPC: 0.3972 (Simulation time: 0 hr 19 min 29 sec) 
select_counter is 2047
Heartbeat CPU 0 instructions: 53000003 cycles: 112610681 heartbeat IPC: 0.369426 cumulative IPC: 0.396507 (Simulation time: 0 hr 20 min 0 sec) 
select_counter is 2044
Heartbeat CPU 0 instructions: 54000000 cycles: 115155500 heartbeat IPC: 0.392954 cumulative IPC: 0.396426 (Simulation time: 0 hr 20 min 31 sec) 
select_counter is 2047
Heartbeat CPU 0 instructions: 55000002 cycles: 118854312 heartbeat IPC: 0.270358 cumulative IPC: 0.39236 (Simulation time: 0 hr 20 min 58 sec) 
select_counter is 2043
Heartbeat CPU 0 instructions: 56000000 cycles: 122481272 heartbeat IPC: 0.275712 cumulative IPC: 0.388784 (Simulation time: 0 hr 21 min 28 sec) 
select_counter is 1912
Heartbeat CPU 0 instructions: 57000003 cycles: 125109899 heartbeat IPC: 0.380428 cumulative IPC: 0.388602 (Simulation time: 0 hr 21 min 52 sec) 
select_counter is 1841
Heartbeat CPU 0 instructions: 58000002 cycles: 127329215 heartbeat IPC: 0.450589 cumulative IPC: 0.389719 (Simulation time: 0 hr 22 min 17 sec) 
select_counter is 1813
Heartbeat CPU 0 instructions: 59000002 cycles: 128877600 heartbeat IPC: 0.645834 cumulative IPC: 0.392899 (Simulation time: 0 hr 22 min 41 sec) 
select_counter is 2044
Heartbeat CPU 0 instructions: 60000000 cycles: 130073043 heartbeat IPC: 0.836508 cumulative IPC: 0.397111 (Simulation time: 0 hr 23 min 1 sec) 
select_counter is 2046
Heartbeat CPU 0 instructions: 61000002 cycles: 132785078 heartbeat IPC: 0.368728 cumulative IPC: 0.396513 (Simulation time: 0 hr 23 min 31 sec) 
select_counter is 2032
Heartbeat CPU 0 instructions: 62000002 cycles: 135443225 heartbeat IPC: 0.376202 cumulative IPC: 0.396101 (Simulation time: 0 hr 24 min 2 sec) 
select_counter is 1569
Heartbeat CPU 0 instructions: 63000002 cycles: 137543002 heartbeat IPC: 0.476241 cumulative IPC: 0.397363 (Simulation time: 0 hr 24 min 29 sec) 
select_counter is 1152
Heartbeat CPU 0 instructions: 64000000 cycles: 139953731 heartbeat IPC: 0.414811 cumulative IPC: 0.397673 (Simulation time: 0 hr 24 min 52 sec) 
select_counter is 1159
Heartbeat CPU 0 instructions: 65000000 cycles: 144030025 heartbeat IPC: 0.245321 cumulative IPC: 0.393232 (Simulation time: 0 hr 25 min 24 sec) 
select_counter is 53
Heartbeat CPU 0 instructions: 66000001 cycles: 145410606 heartbeat IPC: 0.724333 cumulative IPC: 0.396469 (Simulation time: 0 hr 25 min 39 sec) 
select_counter is 2003
Heartbeat CPU 0 instructions: 67000000 cycles: 146803124 heartbeat IPC: 0.718123 cumulative IPC: 0.399609 (Simulation time: 0 hr 25 min 56 sec) 
select_counter is 1984
Heartbeat CPU 0 instructions: 68000000 cycles: 150054830 heartbeat IPC: 0.307531 cumulative IPC: 0.397557 (Simulation time: 0 hr 26 min 24 sec) 
select_counter is 1797
Heartbeat CPU 0 instructions: 69000000 cycles: 152626377 heartbeat IPC: 0.388871 cumulative IPC: 0.397406 (Simulation time: 0 hr 26 min 44 sec) 
select_counter is 1750
Heartbeat CPU 0 instructions: 70000003 cycles: 155077734 heartbeat IPC: 0.407939 cumulative IPC: 0.397577 (Simulation time: 0 hr 27 min 4 sec) 
select_counter is 1695
Heartbeat CPU 0 instructions: 71000000 cycles: 157554261 heartbeat IPC: 0.40379 cumulative IPC: 0.397678 (Simulation time: 0 hr 27 min 31 sec) 
select_counter is 1646
Heartbeat CPU 0 instructions: 72000000 cycles: 160132464 heartbeat IPC: 0.387867 cumulative IPC: 0.397515 (Simulation time: 0 hr 27 min 55 sec) 
select_counter is 1560
Heartbeat CPU 0 instructions: 73000002 cycles: 162873486 heartbeat IPC: 0.364828 cumulative IPC: 0.396951 (Simulation time: 0 hr 28 min 23 sec) 
select_counter is 1247
Heartbeat CPU 0 instructions: 74000000 cycles: 164856719 heartbeat IPC: 0.504226 cumulative IPC: 0.398275 (Simulation time: 0 hr 28 min 43 sec) 
select_counter is 1182
Heartbeat CPU 0 instructions: 75000002 cycles: 166182223 heartbeat IPC: 0.754432 cumulative IPC: 0.401189 (Simulation time: 0 hr 29 min 0 sec) 
select_counter is 1161
Heartbeat CPU 0 instructions: 76000000 cycles: 169321664 heartbeat IPC: 0.318527 cumulative IPC: 0.399617 (Simulation time: 0 hr 29 min 26 sec) 
select_counter is 1097
Heartbeat CPU 0 instructions: 77000000 cycles: 171702458 heartbeat IPC: 0.420028 cumulative IPC: 0.399907 (Simulation time: 0 hr 29 min 49 sec) 
select_counter is 1160
Heartbeat CPU 0 instructions: 78000003 cycles: 174201420 heartbeat IPC: 0.400167 cumulative IPC: 0.399911 (Simulation time: 0 hr 30 min 8 sec) 
select_counter is 1171
Heartbeat CPU 0 instructions: 79000001 cycles: 177320487 heartbeat IPC: 0.320608 cumulative IPC: 0.398483 (Simulation time: 0 hr 30 min 35 sec) 
select_counter is 1237
Heartbeat CPU 0 instructions: 80000000 cycles: 179804130 heartbeat IPC: 0.402634 cumulative IPC: 0.398541 (Simulation time: 0 hr 30 min 58 sec) 
select_counter is 1112
Heartbeat CPU 0 instructions: 81000003 cycles: 182799769 heartbeat IPC: 0.33382 cumulative IPC: 0.397456 (Simulation time: 0 hr 31 min 24 sec) 
select_counter is 836
Heartbeat CPU 0 instructions: 82000000 cycles: 184559687 heartbeat IPC: 0.568207 cumulative IPC: 0.399122 (Simulation time: 0 hr 31 min 42 sec) 
select_counter is 782
Heartbeat CPU 0 instructions: 83000001 cycles: 185897418 heartbeat IPC: 0.747535 cumulative IPC: 0.401687 (Simulation time: 0 hr 31 min 59 sec) 
select_counter is 800
Heartbeat CPU 0 instructions: 84000000 cycles: 189032489 heartbeat IPC: 0.318972 cumulative IPC: 0.400284 (Simulation time: 0 hr 32 min 25 sec) 
select_counter is 822
Heartbeat CPU 0 instructions: 85000002 cycles: 191334927 heartbeat IPC: 0.434323 cumulative IPC: 0.400703 (Simulation time: 0 hr 32 min 46 sec) 
select_counter is 869
Heartbeat CPU 0 instructions: 86000000 cycles: 193831510 heartbeat IPC: 0.400547 cumulative IPC: 0.4007 (Simulation time: 0 hr 33 min 5 sec) 
select_counter is 923
Heartbeat CPU 0 instructions: 87000000 cycles: 196506664 heartbeat IPC: 0.37381 cumulative IPC: 0.400326 (Simulation time: 0 hr 33 min 33 sec) 
select_counter is 889
Heartbeat CPU 0 instructions: 88000000 cycles: 198552661 heartbeat IPC: 0.488759 cumulative IPC: 0.401257 (Simulation time: 0 hr 33 min 57 sec) 
select_counter is 666
Heartbeat CPU 0 instructions: 89000001 cycles: 201939479 heartbeat IPC: 0.295263 cumulative IPC: 0.399442 (Simulation time: 0 hr 34 min 29 sec) 
select_counter is 478
Heartbeat CPU 0 instructions: 90000002 cycles: 203300063 heartbeat IPC: 0.734979 cumulative IPC: 0.401735 (Simulation time: 0 hr 34 min 44 sec) 
select_counter is 462
Heartbeat CPU 0 instructions: 91000000 cycles: 204719802 heartbeat IPC: 0.704353 cumulative IPC: 0.403877 (Simulation time: 0 hr 35 min 0 sec) 
select_counter is 462
Heartbeat CPU 0 instructions: 92000000 cycles: 207772409 heartbeat IPC: 0.327589 cumulative IPC: 0.402733 (Simulation time: 0 hr 35 min 24 sec) 
select_counter is 447
Heartbeat CPU 0 instructions: 93000000 cycles: 210223828 heartbeat IPC: 0.407927 cumulative IPC: 0.402795 (Simulation time: 0 hr 35 min 41 sec) 
select_counter is 510
Heartbeat CPU 0 instructions: 94000001 cycles: 212591215 heartbeat IPC: 0.422407 cumulative IPC: 0.403018 (Simulation time: 0 hr 35 min 57 sec) 
select_counter is 550
Heartbeat CPU 0 instructions: 95000003 cycles: 215553079 heartbeat IPC: 0.337626 cumulative IPC: 0.402101 (Simulation time: 0 hr 36 min 20 sec) 
select_counter is 448
Heartbeat CPU 0 instructions: 96000000 cycles: 217446128 heartbeat IPC: 0.528247 cumulative IPC: 0.403221 (Simulation time: 0 hr 36 min 39 sec) 
select_counter is 165
Heartbeat CPU 0 instructions: 97000003 cycles: 220706882 heartbeat IPC: 0.306678 cumulative IPC: 0.401767 (Simulation time: 0 hr 37 min 0 sec) 
select_counter is 56
Heartbeat CPU 0 instructions: 98000003 cycles: 222037086 heartbeat IPC: 0.751764 cumulative IPC: 0.403904 (Simulation time: 0 hr 37 min 13 sec) 
select_counter is 40
Heartbeat CPU 0 instructions: 99000000 cycles: 224376011 heartbeat IPC: 0.427546 cumulative IPC: 0.404155 (Simulation time: 0 hr 37 min 29 sec) 
select_counter is 2037
Heartbeat CPU 0 instructions: 100000000 cycles: 226966439 heartbeat IPC: 0.386037 cumulative IPC: 0.403945 (Simulation time: 0 hr 37 min 47 sec) 
select_counter is 2039
Heartbeat CPU 0 instructions: 101000001 cycles: 229473234 heartbeat IPC: 0.398916 cumulative IPC: 0.403889 (Simulation time: 0 hr 38 min 1 sec) 
select_counter is 2011
Heartbeat CPU 0 instructions: 102000002 cycles: 232127360 heartbeat IPC: 0.376772 cumulative IPC: 0.403573 (Simulation time: 0 hr 38 min 17 sec) 
select_counter is 2005
Heartbeat CPU 0 instructions: 103000002 cycles: 235151653 heartbeat IPC: 0.330656 cumulative IPC: 0.402618 (Simulation time: 0 hr 38 min 36 sec) 
select_counter is 1889
Heartbeat CPU 0 instructions: 104000000 cycles: 237377275 heartbeat IPC: 0.449312 cumulative IPC: 0.403064 (Simulation time: 0 hr 38 min 54 sec) 
select_counter is 1595
Heartbeat CPU 0 instructions: 105000000 cycles: 239829835 heartbeat IPC: 0.407737 cumulative IPC: 0.403113 (Simulation time: 0 hr 39 min 9 sec) 
select_counter is 1474
Heartbeat CPU 0 instructions: 106000001 cycles: 241162013 heartbeat IPC: 0.750651 cumulative IPC: 0.405066 (Simulation time: 0 hr 39 min 19 sec) 
select_counter is 1445
Heartbeat CPU 0 instructions: 107000001 cycles: 244115014 heartbeat IPC: 0.338639 cumulative IPC: 0.404249 (Simulation time: 0 hr 39 min 37 sec) 
select_counter is 1433
Heartbeat CPU 0 instructions: 108000000 cycles: 246317062 heartbeat IPC: 0.454122 cumulative IPC: 0.404702 (Simulation time: 0 hr 39 min 50 sec) 
select_counter is 1461
Heartbeat CPU 0 instructions: 109000003 cycles: 248849912 heartbeat IPC: 0.394813 cumulative IPC: 0.4046 (Simulation time: 0 hr 40 min 2 sec) 
select_counter is 1458
Heartbeat CPU 0 instructions: 110000001 cycles: 251836382 heartbeat IPC: 0.334843 cumulative IPC: 0.403759 (Simulation time: 0 hr 40 min 18 sec) 
select_counter is 1584
Finished CPU 0 instructions: 100000003 cycles: 247672720 cummulative IPC: 0.403759 (Simulation time: 0 hr 40 min 18 sec) 

ChampSim completed all CPUs

Region of Interest Statistics

CPU 0 cummulative IPC: 0.403759 instructions: 100000003 cycles: 247672720
LLC TOTAL     ACCESS:    6600430  HIT:    3067634  MISS:    3532796
LLC LOAD      ACCESS:    1696604  HIT:     779570  MISS:     917034
LLC RFO       ACCESS:     658488  HIT:     296397  MISS:     362091
LLC PREFETCH  ACCESS:    2684704  HIT:     943345  MISS:    1741359
LLC WRITEBACK ACCESS:    1560634  HIT:    1048322  MISS:     512312
Ship samples: 
25, 51, 85, 100, 133, 177, 220, 244, 285, 315, 335, 367, 406, 429, 475, 481, 518, 568, 586, 616, 649, 693, 724, 758, 773, 820, 842, 880, 922, 947, 969, 1013, 1027, 1076, 1110, 1136, 1160, 1184, 1237, 1251, 1284, 1323, 1366, 1376, 1439, 1453, 1484, 1524, 1552, 1579, 1628, 1650, 1664, 1698, 1731, 1789, 1821, 1845, 1861, 1892, 1929, 1964, 2004, 2021, 
Lime duel samples: 
5, 40, 68, 125, 159, 174, 215, 237, 287, 290, 348, 355, 400, 426, 456, 498, 515, 549, 579, 631, 664, 703, 726, 756, 784, 819, 835, 895, 914, 931, 989, 1017, 1036, 1069, 1115, 1140, 1164, 1189, 1246, 1264, 1288, 1335, 1358, 1404, 1424, 1459, 1480, 1507, 1551, 1576, 1606, 1659, 1668, 1715, 1749, 1765, 1799, 1833, 1875, 1909, 1924, 1969, 2005, 2016, 
Lime samples: 
5, 159, 287, 400, 515, 664, 784, 914, 1036, 1164, 1288, 1424, 1551, 1668, 1799, 1924, 
Insertion Distribution: 
	LOAD 27502 0 0 0 0 0 51535 342776 
	RFO 18019 0 0 0 0 0 39847 72254 
	PREF 0 8293 0 0 0 0 81107 749682 
	WRITEBACK 0 0 0 0 0 0 0 229602 
Total Prefetch Downgrades: 18580
