
*** ChampSim Multicore Out-of-Order Simulator ***

Warmup Instructions: 10000000
Simulation Instructions: 100000000
Configuration: 2
Number of CPUs: 1
LLC sets: 2048
LLC ways: 16
Off-chip DRAM Channels: 1 Width: 64-bit Data Rate: 1600 MT/s

CPU 0 runs /datasets/cs240c-wi22-a00-public/data/Assignment2-gz/perlbench_105B.trace.gz
CPU 0 L1D next line prefetcher
CPU 0 L2C IP-based stride prefetcher
Heartbeat CPU 0 instructions: 1000000 cycles: 578016 heartbeat IPC: 1.73006 cumulative IPC: 1.73006 (Simulation time: 0 hr 0 min 29 sec) 
select_counter is 1030
Heartbeat CPU 0 instructions: 2000001 cycles: 1164321 heartbeat IPC: 1.7056 cumulative IPC: 1.71774 (Simulation time: 0 hr 0 min 53 sec) 
select_counter is 1028
Heartbeat CPU 0 instructions: 3000001 cycles: 1726557 heartbeat IPC: 1.77861 cumulative IPC: 1.73756 (Simulation time: 0 hr 1 min 19 sec) 
select_counter is 1028
Heartbeat CPU 0 instructions: 4000000 cycles: 2305993 heartbeat IPC: 1.72581 cumulative IPC: 1.73461 (Simulation time: 0 hr 1 min 41 sec) 
select_counter is 1028
Heartbeat CPU 0 instructions: 5000003 cycles: 2884260 heartbeat IPC: 1.72931 cumulative IPC: 1.73355 (Simulation time: 0 hr 2 min 4 sec) 
select_counter is 1030
Heartbeat CPU 0 instructions: 6000003 cycles: 3447519 heartbeat IPC: 1.77538 cumulative IPC: 1.74038 (Simulation time: 0 hr 2 min 27 sec) 
select_counter is 1031
Heartbeat CPU 0 instructions: 7000000 cycles: 4019987 heartbeat IPC: 1.74682 cumulative IPC: 1.7413 (Simulation time: 0 hr 2 min 50 sec) 
select_counter is 1031
Heartbeat CPU 0 instructions: 8000000 cycles: 4598049 heartbeat IPC: 1.72992 cumulative IPC: 1.73987 (Simulation time: 0 hr 3 min 17 sec) 
select_counter is 1031
Heartbeat CPU 0 instructions: 9000000 cycles: 5176571 heartbeat IPC: 1.72854 cumulative IPC: 1.7386 (Simulation time: 0 hr 3 min 43 sec) 
select_counter is 1030
Heartbeat CPU 0 instructions: 10000002 cycles: 5745489 heartbeat IPC: 1.75773 cumulative IPC: 1.7405 (Simulation time: 0 hr 4 min 7 sec) 
select_counter is 1030

Warmup complete CPU 0 instructions: 10000002 cycles: 5745489 (Simulation time: 0 hr 4 min 7 sec) 

Heartbeat CPU 0 instructions: 11000002 cycles: 8079760 heartbeat IPC: 0.428399 cumulative IPC: 0.428399 (Simulation time: 0 hr 4 min 39 sec) 
select_counter is 1033
Heartbeat CPU 0 instructions: 12000000 cycles: 10435599 heartbeat IPC: 0.424476 cumulative IPC: 0.426429 (Simulation time: 0 hr 5 min 19 sec) 
select_counter is 1031
Heartbeat CPU 0 instructions: 13000000 cycles: 12866632 heartbeat IPC: 0.411348 cumulative IPC: 0.42128 (Simulation time: 0 hr 5 min 55 sec) 
select_counter is 1031
Heartbeat CPU 0 instructions: 14000000 cycles: 15244606 heartbeat IPC: 0.420526 cumulative IPC: 0.421092 (Simulation time: 0 hr 6 min 28 sec) 
select_counter is 1030
Heartbeat CPU 0 instructions: 15000000 cycles: 17595618 heartbeat IPC: 0.425349 cumulative IPC: 0.421936 (Simulation time: 0 hr 7 min 4 sec) 
select_counter is 1031
Heartbeat CPU 0 instructions: 16000000 cycles: 19976093 heartbeat IPC: 0.420084 cumulative IPC: 0.421626 (Simulation time: 0 hr 7 min 42 sec) 
select_counter is 1035
Heartbeat CPU 0 instructions: 17000003 cycles: 22368505 heartbeat IPC: 0.417989 cumulative IPC: 0.421103 (Simulation time: 0 hr 8 min 17 sec) 
select_counter is 1035
Heartbeat CPU 0 instructions: 18000000 cycles: 24612402 heartbeat IPC: 0.445652 cumulative IPC: 0.424023 (Simulation time: 0 hr 8 min 50 sec) 
select_counter is 1037
Heartbeat CPU 0 instructions: 19000000 cycles: 27117282 heartbeat IPC: 0.399221 cumulative IPC: 0.421116 (Simulation time: 0 hr 9 min 27 sec) 
select_counter is 1037
Heartbeat CPU 0 instructions: 20000000 cycles: 29620732 heartbeat IPC: 0.399449 cumulative IPC: 0.418844 (Simulation time: 0 hr 9 min 59 sec) 
select_counter is 1037
Heartbeat CPU 0 instructions: 21000001 cycles: 32122235 heartbeat IPC: 0.39976 cumulative IPC: 0.417034 (Simulation time: 0 hr 10 min 31 sec) 
select_counter is 1037
Heartbeat CPU 0 instructions: 22000001 cycles: 34618056 heartbeat IPC: 0.40067 cumulative IPC: 0.415619 (Simulation time: 0 hr 11 min 4 sec) 
select_counter is 1037
Heartbeat CPU 0 instructions: 23000000 cycles: 37109945 heartbeat IPC: 0.401302 cumulative IPC: 0.414482 (Simulation time: 0 hr 11 min 41 sec) 
select_counter is 1037
Heartbeat CPU 0 instructions: 24000000 cycles: 39592832 heartbeat IPC: 0.402757 cumulative IPC: 0.413622 (Simulation time: 0 hr 12 min 14 sec) 
select_counter is 1037
Heartbeat CPU 0 instructions: 25000001 cycles: 42055416 heartbeat IPC: 0.406078 cumulative IPC: 0.41311 (Simulation time: 0 hr 12 min 52 sec) 
select_counter is 1037
Heartbeat CPU 0 instructions: 26000001 cycles: 44327979 heartbeat IPC: 0.440032 cumulative IPC: 0.414696 (Simulation time: 0 hr 13 min 25 sec) 
select_counter is 1037
Heartbeat CPU 0 instructions: 27000003 cycles: 46822809 heartbeat IPC: 0.40083 cumulative IPC: 0.413854 (Simulation time: 0 hr 13 min 58 sec) 
select_counter is 1037
Heartbeat CPU 0 instructions: 28000000 cycles: 49326095 heartbeat IPC: 0.399474 cumulative IPC: 0.413028 (Simulation time: 0 hr 14 min 34 sec) 
select_counter is 1037
Heartbeat CPU 0 instructions: 29000001 cycles: 51827756 heartbeat IPC: 0.399735 cumulative IPC: 0.412306 (Simulation time: 0 hr 15 min 6 sec) 
select_counter is 1037
Heartbeat CPU 0 instructions: 30000001 cycles: 54325160 heartbeat IPC: 0.400416 cumulative IPC: 0.411695 (Simulation time: 0 hr 15 min 38 sec) 
select_counter is 1037
Heartbeat CPU 0 instructions: 31000000 cycles: 56816976 heartbeat IPC: 0.401313 cumulative IPC: 0.411188 (Simulation time: 0 hr 16 min 11 sec) 
select_counter is 1037
Heartbeat CPU 0 instructions: 32000000 cycles: 59302103 heartbeat IPC: 0.402394 cumulative IPC: 0.41078 (Simulation time: 0 hr 16 min 49 sec) 
select_counter is 1037
Heartbeat CPU 0 instructions: 33000001 cycles: 61770175 heartbeat IPC: 0.405175 cumulative IPC: 0.410533 (Simulation time: 0 hr 17 min 28 sec) 
select_counter is 1037
Heartbeat CPU 0 instructions: 34000002 cycles: 64180929 heartbeat IPC: 0.414808 cumulative IPC: 0.41071 (Simulation time: 0 hr 18 min 3 sec) 
select_counter is 1035
Heartbeat CPU 0 instructions: 35000002 cycles: 66644069 heartbeat IPC: 0.405986 cumulative IPC: 0.410519 (Simulation time: 0 hr 18 min 38 sec) 
select_counter is 1033
Heartbeat CPU 0 instructions: 36000000 cycles: 69167172 heartbeat IPC: 0.396337 cumulative IPC: 0.409954 (Simulation time: 0 hr 19 min 4 sec) 
select_counter is 985
Heartbeat CPU 0 instructions: 37000001 cycles: 72181685 heartbeat IPC: 0.331729 cumulative IPC: 0.406405 (Simulation time: 0 hr 19 min 41 sec) 
select_counter is 954
Heartbeat CPU 0 instructions: 38000000 cycles: 74857236 heartbeat IPC: 0.373754 cumulative IPC: 0.405141 (Simulation time: 0 hr 20 min 9 sec) 
select_counter is 921
Heartbeat CPU 0 instructions: 39000000 cycles: 77659445 heartbeat IPC: 0.356861 cumulative IPC: 0.40326 (Simulation time: 0 hr 20 min 39 sec) 
select_counter is 886
Heartbeat CPU 0 instructions: 40000000 cycles: 80341560 heartbeat IPC: 0.37284 cumulative IPC: 0.402166 (Simulation time: 0 hr 21 min 9 sec) 
select_counter is 832
Heartbeat CPU 0 instructions: 41000000 cycles: 83005542 heartbeat IPC: 0.375378 cumulative IPC: 0.401242 (Simulation time: 0 hr 21 min 38 sec) 
select_counter is 779
Heartbeat CPU 0 instructions: 42000002 cycles: 85668613 heartbeat IPC: 0.375507 cumulative IPC: 0.400385 (Simulation time: 0 hr 22 min 9 sec) 
select_counter is 729
Heartbeat CPU 0 instructions: 43000000 cycles: 88349054 heartbeat IPC: 0.373072 cumulative IPC: 0.399498 (Simulation time: 0 hr 22 min 40 sec) 
select_counter is 668
Heartbeat CPU 0 instructions: 44000000 cycles: 90995293 heartbeat IPC: 0.377895 cumulative IPC: 0.398828 (Simulation time: 0 hr 23 min 14 sec) 
select_counter is 617
Heartbeat CPU 0 instructions: 45000001 cycles: 93650760 heartbeat IPC: 0.376582 cumulative IPC: 0.398156 (Simulation time: 0 hr 23 min 45 sec) 
select_counter is 587
Heartbeat CPU 0 instructions: 46000003 cycles: 96268146 heartbeat IPC: 0.382061 cumulative IPC: 0.397691 (Simulation time: 0 hr 24 min 17 sec) 
select_counter is 567
Heartbeat CPU 0 instructions: 47000002 cycles: 98902048 heartbeat IPC: 0.379664 cumulative IPC: 0.397181 (Simulation time: 0 hr 24 min 45 sec) 
select_counter is 500
Heartbeat CPU 0 instructions: 48000000 cycles: 101501607 heartbeat IPC: 0.38468 cumulative IPC: 0.396841 (Simulation time: 0 hr 25 min 13 sec) 
select_counter is 447
Heartbeat CPU 0 instructions: 49000002 cycles: 104101284 heartbeat IPC: 0.384664 cumulative IPC: 0.39652 (Simulation time: 0 hr 25 min 43 sec) 
select_counter is 398
Heartbeat CPU 0 instructions: 50000002 cycles: 106704876 heartbeat IPC: 0.384085 cumulative IPC: 0.396199 (Simulation time: 0 hr 26 min 17 sec) 
select_counter is 346
Heartbeat CPU 0 instructions: 51000003 cycles: 109314265 heartbeat IPC: 0.383232 cumulative IPC: 0.395872 (Simulation time: 0 hr 26 min 51 sec) 
select_counter is 300
Heartbeat CPU 0 instructions: 52000000 cycles: 111903860 heartbeat IPC: 0.38616 cumulative IPC: 0.395635 (Simulation time: 0 hr 27 min 20 sec) 
select_counter is 253
Heartbeat CPU 0 instructions: 53000000 cycles: 114483473 heartbeat IPC: 0.387655 cumulative IPC: 0.395446 (Simulation time: 0 hr 27 min 50 sec) 
select_counter is 200
Heartbeat CPU 0 instructions: 54000000 cycles: 117101472 heartbeat IPC: 0.381971 cumulative IPC: 0.395129 (Simulation time: 0 hr 28 min 19 sec) 
select_counter is 139
Heartbeat CPU 0 instructions: 55000003 cycles: 119664112 heartbeat IPC: 0.390224 cumulative IPC: 0.395019 (Simulation time: 0 hr 28 min 48 sec) 
select_counter is 95
Heartbeat CPU 0 instructions: 56000000 cycles: 122050413 heartbeat IPC: 0.419057 cumulative IPC: 0.395512 (Simulation time: 0 hr 29 min 18 sec) 
select_counter is 78
Heartbeat CPU 0 instructions: 57000002 cycles: 124325717 heartbeat IPC: 0.439503 cumulative IPC: 0.396356 (Simulation time: 0 hr 29 min 48 sec) 
select_counter is 75
Heartbeat CPU 0 instructions: 58000001 cycles: 125653456 heartbeat IPC: 0.753159 cumulative IPC: 0.400307 (Simulation time: 0 hr 30 min 13 sec) 
select_counter is 68
Heartbeat CPU 0 instructions: 59000002 cycles: 127898182 heartbeat IPC: 0.445489 cumulative IPC: 0.401137 (Simulation time: 0 hr 30 min 42 sec) 
select_counter is 56
Heartbeat CPU 0 instructions: 60000000 cycles: 130246933 heartbeat IPC: 0.425757 cumulative IPC: 0.401602 (Simulation time: 0 hr 31 min 16 sec) 
select_counter is 56
Heartbeat CPU 0 instructions: 61000002 cycles: 132696423 heartbeat IPC: 0.408249 cumulative IPC: 0.40173 (Simulation time: 0 hr 31 min 50 sec) 
select_counter is 56
Heartbeat CPU 0 instructions: 62000000 cycles: 135062896 heartbeat IPC: 0.422569 cumulative IPC: 0.402111 (Simulation time: 0 hr 32 min 24 sec) 
select_counter is 57
Heartbeat CPU 0 instructions: 63000000 cycles: 137425783 heartbeat IPC: 0.423211 cumulative IPC: 0.40249 (Simulation time: 0 hr 32 min 54 sec) 
select_counter is 58
Heartbeat CPU 0 instructions: 64000000 cycles: 139845277 heartbeat IPC: 0.41331 cumulative IPC: 0.402685 (Simulation time: 0 hr 33 min 23 sec) 
select_counter is 58
Heartbeat CPU 0 instructions: 65000003 cycles: 142170180 heartbeat IPC: 0.430127 cumulative IPC: 0.403153 (Simulation time: 0 hr 33 min 54 sec) 
select_counter is 58
Heartbeat CPU 0 instructions: 66000002 cycles: 144513598 heartbeat IPC: 0.426727 cumulative IPC: 0.403551 (Simulation time: 0 hr 34 min 30 sec) 
select_counter is 58
Heartbeat CPU 0 instructions: 67000001 cycles: 146869183 heartbeat IPC: 0.424523 cumulative IPC: 0.403901 (Simulation time: 0 hr 34 min 59 sec) 
select_counter is 59
Heartbeat CPU 0 instructions: 68000000 cycles: 149317374 heartbeat IPC: 0.408464 cumulative IPC: 0.403979 (Simulation time: 0 hr 35 min 30 sec) 
select_counter is 59
Heartbeat CPU 0 instructions: 69000001 cycles: 151669841 heartbeat IPC: 0.425086 cumulative IPC: 0.404319 (Simulation time: 0 hr 35 min 58 sec) 
select_counter is 59
Heartbeat CPU 0 instructions: 70000000 cycles: 154085679 heartbeat IPC: 0.413935 cumulative IPC: 0.404476 (Simulation time: 0 hr 36 min 23 sec) 
select_counter is 59
Heartbeat CPU 0 instructions: 71000000 cycles: 156471969 heartbeat IPC: 0.419061 cumulative IPC: 0.404707 (Simulation time: 0 hr 36 min 49 sec) 
select_counter is 59
Heartbeat CPU 0 instructions: 72000000 cycles: 158801132 heartbeat IPC: 0.429339 cumulative IPC: 0.405081 (Simulation time: 0 hr 37 min 16 sec) 
select_counter is 59
Heartbeat CPU 0 instructions: 73000000 cycles: 161134614 heartbeat IPC: 0.428544 cumulative IPC: 0.405434 (Simulation time: 0 hr 37 min 42 sec) 
select_counter is 58
Heartbeat CPU 0 instructions: 74000002 cycles: 163519938 heartbeat IPC: 0.419231 cumulative IPC: 0.405642 (Simulation time: 0 hr 38 min 6 sec) 
select_counter is 58
Heartbeat CPU 0 instructions: 75000000 cycles: 165943387 heartbeat IPC: 0.412634 cumulative IPC: 0.405748 (Simulation time: 0 hr 38 min 31 sec) 
select_counter is 58
Heartbeat CPU 0 instructions: 76000000 cycles: 168302795 heartbeat IPC: 0.423835 cumulative IPC: 0.406011 (Simulation time: 0 hr 38 min 54 sec) 
select_counter is 58
Heartbeat CPU 0 instructions: 77000000 cycles: 170737290 heartbeat IPC: 0.410763 cumulative IPC: 0.406081 (Simulation time: 0 hr 39 min 16 sec) 
select_counter is 58
Heartbeat CPU 0 instructions: 78000002 cycles: 173102209 heartbeat IPC: 0.422848 cumulative IPC: 0.406318 (Simulation time: 0 hr 39 min 38 sec) 
select_counter is 58
Heartbeat CPU 0 instructions: 79000001 cycles: 175438691 heartbeat IPC: 0.427993 cumulative IPC: 0.406616 (Simulation time: 0 hr 39 min 59 sec) 
select_counter is 57
Heartbeat CPU 0 instructions: 80000000 cycles: 177770047 heartbeat IPC: 0.428934 cumulative IPC: 0.406919 (Simulation time: 0 hr 40 min 18 sec) 
select_counter is 57
Heartbeat CPU 0 instructions: 81000000 cycles: 180193731 heartbeat IPC: 0.412595 cumulative IPC: 0.406998 (Simulation time: 0 hr 40 min 36 sec) 
select_counter is 57
Heartbeat CPU 0 instructions: 82000000 cycles: 182556769 heartbeat IPC: 0.423184 cumulative IPC: 0.407214 (Simulation time: 0 hr 40 min 55 sec) 
select_counter is 57
Heartbeat CPU 0 instructions: 83000002 cycles: 184877888 heartbeat IPC: 0.430828 cumulative IPC: 0.40752 (Simulation time: 0 hr 41 min 13 sec) 
select_counter is 57
Heartbeat CPU 0 instructions: 84000000 cycles: 187300440 heartbeat IPC: 0.412787 cumulative IPC: 0.40759 (Simulation time: 0 hr 41 min 30 sec) 
select_counter is 57
Heartbeat CPU 0 instructions: 85000000 cycles: 189675136 heartbeat IPC: 0.421107 cumulative IPC: 0.407765 (Simulation time: 0 hr 41 min 47 sec) 
select_counter is 56
Heartbeat CPU 0 instructions: 86000000 cycles: 192024975 heartbeat IPC: 0.425561 cumulative IPC: 0.407989 (Simulation time: 0 hr 42 min 5 sec) 
select_counter is 55
Heartbeat CPU 0 instructions: 87000001 cycles: 194471294 heartbeat IPC: 0.408778 cumulative IPC: 0.407999 (Simulation time: 0 hr 42 min 24 sec) 
select_counter is 55
Heartbeat CPU 0 instructions: 88000000 cycles: 196837303 heartbeat IPC: 0.422652 cumulative IPC: 0.408181 (Simulation time: 0 hr 42 min 39 sec) 
select_counter is 55
Heartbeat CPU 0 instructions: 89000002 cycles: 199162955 heartbeat IPC: 0.429988 cumulative IPC: 0.408443 (Simulation time: 0 hr 42 min 54 sec) 
select_counter is 55
Heartbeat CPU 0 instructions: 90000002 cycles: 201526791 heartbeat IPC: 0.423041 cumulative IPC: 0.408619 (Simulation time: 0 hr 43 min 9 sec) 
select_counter is 55
Heartbeat CPU 0 instructions: 91000003 cycles: 203943354 heartbeat IPC: 0.413811 cumulative IPC: 0.408683 (Simulation time: 0 hr 43 min 23 sec) 
select_counter is 55
Heartbeat CPU 0 instructions: 92000000 cycles: 206302733 heartbeat IPC: 0.423839 cumulative IPC: 0.408861 (Simulation time: 0 hr 43 min 34 sec) 
select_counter is 55
Heartbeat CPU 0 instructions: 93000001 cycles: 208649801 heartbeat IPC: 0.426064 cumulative IPC: 0.40906 (Simulation time: 0 hr 43 min 43 sec) 
select_counter is 55
Heartbeat CPU 0 instructions: 94000002 cycles: 211102263 heartbeat IPC: 0.407754 cumulative IPC: 0.409044 (Simulation time: 0 hr 43 min 52 sec) 
select_counter is 55
Heartbeat CPU 0 instructions: 95000000 cycles: 213463607 heartbeat IPC: 0.423487 cumulative IPC: 0.409208 (Simulation time: 0 hr 44 min 0 sec) 
select_counter is 55
Heartbeat CPU 0 instructions: 96000000 cycles: 215787158 heartbeat IPC: 0.430376 cumulative IPC: 0.409443 (Simulation time: 0 hr 44 min 9 sec) 
select_counter is 54
Heartbeat CPU 0 instructions: 97000000 cycles: 218173804 heartbeat IPC: 0.418998 cumulative IPC: 0.40955 (Simulation time: 0 hr 44 min 17 sec) 
select_counter is 54
Heartbeat CPU 0 instructions: 98000001 cycles: 220573817 heartbeat IPC: 0.416665 cumulative IPC: 0.409629 (Simulation time: 0 hr 44 min 25 sec) 
select_counter is 54
Heartbeat CPU 0 instructions: 99000002 cycles: 222932734 heartbeat IPC: 0.423924 cumulative IPC: 0.409785 (Simulation time: 0 hr 44 min 32 sec) 
select_counter is 53
Heartbeat CPU 0 instructions: 100000000 cycles: 225286486 heartbeat IPC: 0.424853 cumulative IPC: 0.409946 (Simulation time: 0 hr 44 min 38 sec) 
select_counter is 50
Heartbeat CPU 0 instructions: 101000000 cycles: 227702123 heartbeat IPC: 0.413969 cumulative IPC: 0.40999 (Simulation time: 0 hr 44 min 43 sec) 
select_counter is 50
Heartbeat CPU 0 instructions: 102000000 cycles: 229935041 heartbeat IPC: 0.447844 cumulative IPC: 0.410367 (Simulation time: 0 hr 44 min 49 sec) 
select_counter is 50
Heartbeat CPU 0 instructions: 103000001 cycles: 232439641 heartbeat IPC: 0.399266 cumulative IPC: 0.410244 (Simulation time: 0 hr 44 min 54 sec) 
select_counter is 50
Heartbeat CPU 0 instructions: 104000000 cycles: 234942161 heartbeat IPC: 0.399597 cumulative IPC: 0.410128 (Simulation time: 0 hr 44 min 59 sec) 
select_counter is 50
Heartbeat CPU 0 instructions: 105000000 cycles: 237442034 heartbeat IPC: 0.40002 cumulative IPC: 0.410019 (Simulation time: 0 hr 45 min 4 sec) 
select_counter is 50
Heartbeat CPU 0 instructions: 106000000 cycles: 239938239 heartbeat IPC: 0.400608 cumulative IPC: 0.409919 (Simulation time: 0 hr 45 min 9 sec) 
select_counter is 50
Heartbeat CPU 0 instructions: 107000001 cycles: 242428831 heartbeat IPC: 0.401511 cumulative IPC: 0.40983 (Simulation time: 0 hr 45 min 13 sec) 
select_counter is 50
Heartbeat CPU 0 instructions: 108000000 cycles: 244909237 heartbeat IPC: 0.403159 cumulative IPC: 0.409761 (Simulation time: 0 hr 45 min 16 sec) 
select_counter is 50
Heartbeat CPU 0 instructions: 109000002 cycles: 247365386 heartbeat IPC: 0.407142 cumulative IPC: 0.409734 (Simulation time: 0 hr 45 min 20 sec) 
select_counter is 50
Heartbeat CPU 0 instructions: 110000000 cycles: 249685051 heartbeat IPC: 0.431096 cumulative IPC: 0.409938 (Simulation time: 0 hr 45 min 24 sec) 
select_counter is 50
Finished CPU 0 instructions: 100000000 cycles: 243939588 cummulative IPC: 0.409938 (Simulation time: 0 hr 45 min 24 sec) 

ChampSim completed all CPUs

Region of Interest Statistics

CPU 0 cummulative IPC: 0.409938 instructions: 100000000 cycles: 243939588
LLC TOTAL     ACCESS:     157860  HIT:     112855  MISS:      45005
LLC LOAD      ACCESS:      71013  HIT:      60655  MISS:      10358
LLC RFO       ACCESS:      11273  HIT:       5419  MISS:       5854
LLC PREFETCH  ACCESS:      50724  HIT:      24142  MISS:      26582
LLC WRITEBACK ACCESS:      24850  HIT:      22639  MISS:       2211
Ship samples: 
20, 43, 75, 115, 151, 171, 202, 236, 271, 303, 333, 372, 399, 443, 467, 481, 514, 572, 603, 636, 668, 678, 727, 761, 769, 808, 860, 885, 911, 937, 982, 1016, 1031, 1074, 1089, 1138, 1162, 1184, 1234, 1278, 1296, 1335, 1345, 1404, 1420, 1447, 1481, 1517, 1540, 1574, 1604, 1647, 1681, 1707, 1751, 1790, 1813, 1844, 1880, 1895, 1934, 1978, 1997, 2023, 
Lime duel samples: 
3, 60, 84, 110, 142, 172, 211, 240, 275, 302, 321, 371, 391, 434, 478, 486, 520, 556, 589, 623, 658, 679, 710, 754, 775, 809, 846, 893, 907, 944, 962, 1002, 1047, 1061, 1110, 1124, 1161, 1208, 1245, 1255, 1307, 1324, 1357, 1378, 1425, 1470, 1494, 1535, 1552, 1599, 1606, 1657, 1678, 1711, 1731, 1769, 1799, 1845, 1878, 1904, 1924, 1966, 2007, 2024, 
Lime samples: 
3, 142, 275, 391, 520, 658, 775, 907, 1047, 1161, 1307, 1425, 1552, 1678, 1799, 1924, 
Insertion Distribution: 
	LOAD 398 0 0 0 0 0 7698 9 
	RFO 41 0 0 0 0 0 4988 32 
	PREF 0 7062 0 0 0 0 16698 75 
	WRITEBACK 0 0 0 0 0 0 0 2031 
Total Prefetch Downgrades: 2466
