
*** ChampSim Multicore Out-of-Order Simulator ***

Warmup Instructions: 10000000
Simulation Instructions: 100000000
Configuration: 2
Number of CPUs: 1
LLC sets: 2048
LLC ways: 16
Off-chip DRAM Channels: 1 Width: 64-bit Data Rate: 1600 MT/s

CPU 0 runs /datasets/cs240c-wi22-a00-public/data/Assignment2-gz/bzip2_183B.trace.gz
CPU 0 L1D next line prefetcher
CPU 0 L2C IP-based stride prefetcher
Heartbeat CPU 0 instructions: 1000000 cycles: 447984 heartbeat IPC: 2.23222 cumulative IPC: 2.23222 (Simulation time: 0 hr 0 min 24 sec) 
select_counter is 944
Heartbeat CPU 0 instructions: 2000001 cycles: 951255 heartbeat IPC: 1.987 cumulative IPC: 2.10249 (Simulation time: 0 hr 0 min 51 sec) 
select_counter is 941
Heartbeat CPU 0 instructions: 3000001 cycles: 1457938 heartbeat IPC: 1.97362 cumulative IPC: 2.0577 (Simulation time: 0 hr 1 min 15 sec) 
select_counter is 928
Heartbeat CPU 0 instructions: 4000000 cycles: 1928580 heartbeat IPC: 2.12476 cumulative IPC: 2.07406 (Simulation time: 0 hr 1 min 39 sec) 
select_counter is 847
Heartbeat CPU 0 instructions: 5000000 cycles: 2425896 heartbeat IPC: 2.01079 cumulative IPC: 2.06109 (Simulation time: 0 hr 2 min 4 sec) 
select_counter is 822
Heartbeat CPU 0 instructions: 6000001 cycles: 2887506 heartbeat IPC: 2.16633 cumulative IPC: 2.07792 (Simulation time: 0 hr 2 min 25 sec) 
select_counter is 790
Heartbeat CPU 0 instructions: 7000002 cycles: 3343354 heartbeat IPC: 2.19372 cumulative IPC: 2.09371 (Simulation time: 0 hr 2 min 50 sec) 
select_counter is 684
Heartbeat CPU 0 instructions: 8000000 cycles: 3812941 heartbeat IPC: 2.12953 cumulative IPC: 2.09812 (Simulation time: 0 hr 3 min 16 sec) 
select_counter is 664
Heartbeat CPU 0 instructions: 9000003 cycles: 4278157 heartbeat IPC: 2.14955 cumulative IPC: 2.10371 (Simulation time: 0 hr 3 min 40 sec) 
select_counter is 623
Heartbeat CPU 0 instructions: 10000000 cycles: 4746589 heartbeat IPC: 2.13478 cumulative IPC: 2.10678 (Simulation time: 0 hr 4 min 4 sec) 
select_counter is 574

Warmup complete CPU 0 instructions: 10000001 cycles: 4746590 (Simulation time: 0 hr 4 min 4 sec) 

Heartbeat CPU 0 instructions: 11000000 cycles: 6294161 heartbeat IPC: 0.646173 cumulative IPC: 0.646173 (Simulation time: 0 hr 4 min 26 sec) 
select_counter is 537
Heartbeat CPU 0 instructions: 12000000 cycles: 7785027 heartbeat IPC: 0.670751 cumulative IPC: 0.658233 (Simulation time: 0 hr 4 min 45 sec) 
select_counter is 501
Heartbeat CPU 0 instructions: 13000000 cycles: 9011619 heartbeat IPC: 0.815267 cumulative IPC: 0.703395 (Simulation time: 0 hr 5 min 8 sec) 
select_counter is 494
Heartbeat CPU 0 instructions: 14000003 cycles: 10072160 heartbeat IPC: 0.942918 cumulative IPC: 0.751094 (Simulation time: 0 hr 5 min 32 sec) 
select_counter is 457
Heartbeat CPU 0 instructions: 15000000 cycles: 11467010 heartbeat IPC: 0.716921 cumulative IPC: 0.744001 (Simulation time: 0 hr 5 min 55 sec) 
select_counter is 407
Heartbeat CPU 0 instructions: 16000000 cycles: 12440792 heartbeat IPC: 1.02692 cumulative IPC: 0.779808 (Simulation time: 0 hr 6 min 16 sec) 
select_counter is 396
Heartbeat CPU 0 instructions: 17000003 cycles: 13341750 heartbeat IPC: 1.10993 cumulative IPC: 0.814412 (Simulation time: 0 hr 6 min 36 sec) 
select_counter is 388
Heartbeat CPU 0 instructions: 18000001 cycles: 14262765 heartbeat IPC: 1.08576 cumulative IPC: 0.840674 (Simulation time: 0 hr 6 min 57 sec) 
select_counter is 388
Heartbeat CPU 0 instructions: 19000002 cycles: 15208171 heartbeat IPC: 1.05775 cumulative IPC: 0.860291 (Simulation time: 0 hr 7 min 19 sec) 
select_counter is 371
Heartbeat CPU 0 instructions: 20000000 cycles: 16409437 heartbeat IPC: 0.832453 cumulative IPC: 0.857423 (Simulation time: 0 hr 7 min 39 sec) 
select_counter is 363
Heartbeat CPU 0 instructions: 21000000 cycles: 17906694 heartbeat IPC: 0.667888 cumulative IPC: 0.83586 (Simulation time: 0 hr 8 min 0 sec) 
select_counter is 362
Heartbeat CPU 0 instructions: 22000000 cycles: 19318139 heartbeat IPC: 0.708494 cumulative IPC: 0.823523 (Simulation time: 0 hr 8 min 21 sec) 
select_counter is 338
Heartbeat CPU 0 instructions: 23000000 cycles: 20451600 heartbeat IPC: 0.882254 cumulative IPC: 0.827761 (Simulation time: 0 hr 8 min 42 sec) 
select_counter is 292
Heartbeat CPU 0 instructions: 24000000 cycles: 21711530 heartbeat IPC: 0.793695 cumulative IPC: 0.825231 (Simulation time: 0 hr 9 min 3 sec) 
select_counter is 284
Heartbeat CPU 0 instructions: 25000001 cycles: 23053463 heartbeat IPC: 0.745194 cumulative IPC: 0.819364 (Simulation time: 0 hr 9 min 24 sec) 
select_counter is 280
Heartbeat CPU 0 instructions: 26000002 cycles: 24032706 heartbeat IPC: 1.0212 cumulative IPC: 0.829612 (Simulation time: 0 hr 9 min 53 sec) 
select_counter is 274
Heartbeat CPU 0 instructions: 27000000 cycles: 25034395 heartbeat IPC: 0.998312 cumulative IPC: 0.837942 (Simulation time: 0 hr 10 min 14 sec) 
select_counter is 267
Heartbeat CPU 0 instructions: 28000000 cycles: 26317381 heartbeat IPC: 0.779432 cumulative IPC: 0.834462 (Simulation time: 0 hr 10 min 34 sec) 
select_counter is 246
Heartbeat CPU 0 instructions: 29000003 cycles: 27390538 heartbeat IPC: 0.931833 cumulative IPC: 0.839076 (Simulation time: 0 hr 11 min 0 sec) 
select_counter is 239
Heartbeat CPU 0 instructions: 30000000 cycles: 28708371 heartbeat IPC: 0.758819 cumulative IPC: 0.834662 (Simulation time: 0 hr 11 min 20 sec) 
select_counter is 222
Heartbeat CPU 0 instructions: 31000000 cycles: 30006419 heartbeat IPC: 0.770388 cumulative IPC: 0.83136 (Simulation time: 0 hr 11 min 42 sec) 
select_counter is 196
Heartbeat CPU 0 instructions: 32000000 cycles: 31622229 heartbeat IPC: 0.618885 cumulative IPC: 0.818585 (Simulation time: 0 hr 12 min 2 sec) 
select_counter is 193
Heartbeat CPU 0 instructions: 33000000 cycles: 32679506 heartbeat IPC: 0.945826 cumulative IPC: 0.823401 (Simulation time: 0 hr 12 min 24 sec) 
select_counter is 150
Heartbeat CPU 0 instructions: 34000001 cycles: 33686268 heartbeat IPC: 0.993284 cumulative IPC: 0.829311 (Simulation time: 0 hr 12 min 45 sec) 
select_counter is 149
Heartbeat CPU 0 instructions: 35000003 cycles: 34701319 heartbeat IPC: 0.985174 cumulative IPC: 0.834593 (Simulation time: 0 hr 13 min 4 sec) 
select_counter is 144
Heartbeat CPU 0 instructions: 36000000 cycles: 35709375 heartbeat IPC: 0.992005 cumulative IPC: 0.839718 (Simulation time: 0 hr 13 min 23 sec) 
select_counter is 131
Heartbeat CPU 0 instructions: 37000003 cycles: 36948074 heartbeat IPC: 0.807301 cumulative IPC: 0.838471 (Simulation time: 0 hr 13 min 45 sec) 
select_counter is 90
Heartbeat CPU 0 instructions: 38000001 cycles: 38460716 heartbeat IPC: 0.661094 cumulative IPC: 0.830512 (Simulation time: 0 hr 14 min 7 sec) 
select_counter is 68
Heartbeat CPU 0 instructions: 39000002 cycles: 39576479 heartbeat IPC: 0.896249 cumulative IPC: 0.832618 (Simulation time: 0 hr 14 min 29 sec) 
select_counter is 50
Heartbeat CPU 0 instructions: 40000000 cycles: 40617966 heartbeat IPC: 0.960164 cumulative IPC: 0.836321 (Simulation time: 0 hr 14 min 50 sec) 
select_counter is 34
Heartbeat CPU 0 instructions: 41000002 cycles: 42086021 heartbeat IPC: 0.681175 cumulative IPC: 0.830222 (Simulation time: 0 hr 15 min 8 sec) 
select_counter is 21
Heartbeat CPU 0 instructions: 42000000 cycles: 43367269 heartbeat IPC: 0.780487 cumulative IPC: 0.828572 (Simulation time: 0 hr 15 min 30 sec) 
select_counter is 14
Heartbeat CPU 0 instructions: 43000001 cycles: 44509892 heartbeat IPC: 0.87518 cumulative IPC: 0.829911 (Simulation time: 0 hr 15 min 54 sec) 
select_counter is 2020
Heartbeat CPU 0 instructions: 44000000 cycles: 45658904 heartbeat IPC: 0.870312 cumulative IPC: 0.831046 (Simulation time: 0 hr 16 min 14 sec) 
select_counter is 2015
Heartbeat CPU 0 instructions: 45000000 cycles: 46726890 heartbeat IPC: 0.936342 cumulative IPC: 0.833724 (Simulation time: 0 hr 16 min 37 sec) 
select_counter is 1994
Heartbeat CPU 0 instructions: 46000000 cycles: 47849237 heartbeat IPC: 0.89099 cumulative IPC: 0.835216 (Simulation time: 0 hr 17 min 0 sec) 
select_counter is 1980
Heartbeat CPU 0 instructions: 47000003 cycles: 48855051 heartbeat IPC: 0.994223 cumulative IPC: 0.838841 (Simulation time: 0 hr 17 min 20 sec) 
select_counter is 1975
Heartbeat CPU 0 instructions: 48000000 cycles: 50428423 heartbeat IPC: 0.635576 cumulative IPC: 0.831841 (Simulation time: 0 hr 17 min 40 sec) 
select_counter is 1962
Heartbeat CPU 0 instructions: 49000003 cycles: 52037103 heartbeat IPC: 0.62163 cumulative IPC: 0.82469 (Simulation time: 0 hr 17 min 59 sec) 
select_counter is 1947
Heartbeat CPU 0 instructions: 50000000 cycles: 53178586 heartbeat IPC: 0.876051 cumulative IPC: 0.8259 (Simulation time: 0 hr 18 min 20 sec) 
select_counter is 1918
Heartbeat CPU 0 instructions: 51000000 cycles: 54208266 heartbeat IPC: 0.971175 cumulative IPC: 0.828925 (Simulation time: 0 hr 18 min 40 sec) 
select_counter is 1917
Heartbeat CPU 0 instructions: 52000000 cycles: 55231389 heartbeat IPC: 0.9774 cumulative IPC: 0.831934 (Simulation time: 0 hr 18 min 59 sec) 
select_counter is 1914
Heartbeat CPU 0 instructions: 53000001 cycles: 56214322 heartbeat IPC: 1.01736 cumulative IPC: 0.835475 (Simulation time: 0 hr 19 min 21 sec) 
select_counter is 1885
Heartbeat CPU 0 instructions: 54000001 cycles: 57227179 heartbeat IPC: 0.987306 cumulative IPC: 0.838405 (Simulation time: 0 hr 19 min 40 sec) 
select_counter is 1876
Heartbeat CPU 0 instructions: 55000001 cycles: 58466984 heartbeat IPC: 0.806578 cumulative IPC: 0.837671 (Simulation time: 0 hr 20 min 3 sec) 
select_counter is 1864
Heartbeat CPU 0 instructions: 56000000 cycles: 59662286 heartbeat IPC: 0.836608 cumulative IPC: 0.837648 (Simulation time: 0 hr 20 min 24 sec) 
select_counter is 1828
Heartbeat CPU 0 instructions: 57000003 cycles: 61056398 heartbeat IPC: 0.717305 cumulative IPC: 0.834668 (Simulation time: 0 hr 20 min 46 sec) 
select_counter is 1803
Heartbeat CPU 0 instructions: 58000001 cycles: 62639287 heartbeat IPC: 0.631755 cumulative IPC: 0.82912 (Simulation time: 0 hr 21 min 8 sec) 
select_counter is 1778
Heartbeat CPU 0 instructions: 59000003 cycles: 63952103 heartbeat IPC: 0.761723 cumulative IPC: 0.827626 (Simulation time: 0 hr 21 min 30 sec) 
select_counter is 1763
Heartbeat CPU 0 instructions: 60000000 cycles: 65535743 heartbeat IPC: 0.631455 cumulative IPC: 0.822515 (Simulation time: 0 hr 21 min 51 sec) 
select_counter is 1740
Heartbeat CPU 0 instructions: 61000003 cycles: 67278166 heartbeat IPC: 0.573915 cumulative IPC: 0.815588 (Simulation time: 0 hr 22 min 10 sec) 
select_counter is 1735
Heartbeat CPU 0 instructions: 62000002 cycles: 68826406 heartbeat IPC: 0.645894 cumulative IPC: 0.811488 (Simulation time: 0 hr 22 min 30 sec) 
select_counter is 1734
Heartbeat CPU 0 instructions: 63000003 cycles: 70217370 heartbeat IPC: 0.718927 cumulative IPC: 0.809521 (Simulation time: 0 hr 22 min 50 sec) 
select_counter is 1731
Heartbeat CPU 0 instructions: 64000000 cycles: 71792115 heartbeat IPC: 0.635022 cumulative IPC: 0.805423 (Simulation time: 0 hr 23 min 10 sec) 
select_counter is 1724
Heartbeat CPU 0 instructions: 65000003 cycles: 73046918 heartbeat IPC: 0.79694 cumulative IPC: 0.805267 (Simulation time: 0 hr 23 min 30 sec) 
select_counter is 1716
Heartbeat CPU 0 instructions: 66000000 cycles: 74381321 heartbeat IPC: 0.749397 cumulative IPC: 0.804196 (Simulation time: 0 hr 23 min 51 sec) 
select_counter is 1705
Heartbeat CPU 0 instructions: 67000000 cycles: 75335360 heartbeat IPC: 1.04818 cumulative IPC: 0.807494 (Simulation time: 0 hr 24 min 11 sec) 
select_counter is 1704
Heartbeat CPU 0 instructions: 68000000 cycles: 76742678 heartbeat IPC: 0.710571 cumulative IPC: 0.805599 (Simulation time: 0 hr 24 min 32 sec) 
select_counter is 1696
Heartbeat CPU 0 instructions: 69000000 cycles: 78317137 heartbeat IPC: 0.635139 cumulative IPC: 0.801951 (Simulation time: 0 hr 24 min 52 sec) 
select_counter is 1701
Heartbeat CPU 0 instructions: 70000002 cycles: 79803199 heartbeat IPC: 0.672921 cumulative IPC: 0.799397 (Simulation time: 0 hr 25 min 16 sec) 
select_counter is 1662
Heartbeat CPU 0 instructions: 71000000 cycles: 81381220 heartbeat IPC: 0.633704 cumulative IPC: 0.795985 (Simulation time: 0 hr 25 min 38 sec) 
select_counter is 1656
Heartbeat CPU 0 instructions: 72000000 cycles: 82749425 heartbeat IPC: 0.730885 cumulative IPC: 0.794843 (Simulation time: 0 hr 25 min 59 sec) 
select_counter is 1652
Heartbeat CPU 0 instructions: 73000001 cycles: 84043730 heartbeat IPC: 0.772616 cumulative IPC: 0.79448 (Simulation time: 0 hr 26 min 20 sec) 
select_counter is 1640
Heartbeat CPU 0 instructions: 74000000 cycles: 85214094 heartbeat IPC: 0.854434 cumulative IPC: 0.795352 (Simulation time: 0 hr 26 min 46 sec) 
select_counter is 1636
Heartbeat CPU 0 instructions: 75000001 cycles: 86631016 heartbeat IPC: 0.705756 cumulative IPC: 0.793802 (Simulation time: 0 hr 27 min 6 sec) 
select_counter is 1615
Heartbeat CPU 0 instructions: 76000000 cycles: 87773080 heartbeat IPC: 0.875607 cumulative IPC: 0.794927 (Simulation time: 0 hr 27 min 28 sec) 
select_counter is 1609
Heartbeat CPU 0 instructions: 77000003 cycles: 88951772 heartbeat IPC: 0.848401 cumulative IPC: 0.795676 (Simulation time: 0 hr 27 min 50 sec) 
select_counter is 1604
Heartbeat CPU 0 instructions: 78000000 cycles: 90296950 heartbeat IPC: 0.743394 cumulative IPC: 0.794853 (Simulation time: 0 hr 28 min 10 sec) 
select_counter is 1590
Heartbeat CPU 0 instructions: 79000000 cycles: 91646505 heartbeat IPC: 0.740985 cumulative IPC: 0.794017 (Simulation time: 0 hr 28 min 30 sec) 
select_counter is 1595
Heartbeat CPU 0 instructions: 80000000 cycles: 93040624 heartbeat IPC: 0.717299 cumulative IPC: 0.792806 (Simulation time: 0 hr 28 min 54 sec) 
select_counter is 1572
Heartbeat CPU 0 instructions: 81000000 cycles: 94738970 heartbeat IPC: 0.588808 cumulative IPC: 0.788956 (Simulation time: 0 hr 29 min 14 sec) 
select_counter is 1561
Heartbeat CPU 0 instructions: 82000002 cycles: 96293816 heartbeat IPC: 0.643152 cumulative IPC: 0.786479 (Simulation time: 0 hr 29 min 33 sec) 
select_counter is 1548
Heartbeat CPU 0 instructions: 83000000 cycles: 97452719 heartbeat IPC: 0.862883 cumulative IPC: 0.787434 (Simulation time: 0 hr 29 min 53 sec) 
select_counter is 1525
Heartbeat CPU 0 instructions: 84000000 cycles: 98405032 heartbeat IPC: 1.05007 cumulative IPC: 0.790105 (Simulation time: 0 hr 30 min 11 sec) 
select_counter is 1526
Heartbeat CPU 0 instructions: 85000002 cycles: 99449386 heartbeat IPC: 0.957532 cumulative IPC: 0.791951 (Simulation time: 0 hr 30 min 28 sec) 
select_counter is 1533
Heartbeat CPU 0 instructions: 86000002 cycles: 100429068 heartbeat IPC: 1.02074 cumulative IPC: 0.794294 (Simulation time: 0 hr 30 min 45 sec) 
select_counter is 1525
Heartbeat CPU 0 instructions: 87000001 cycles: 101453760 heartbeat IPC: 0.975902 cumulative IPC: 0.796218 (Simulation time: 0 hr 31 min 5 sec) 
select_counter is 1493
Heartbeat CPU 0 instructions: 88000000 cycles: 102749828 heartbeat IPC: 0.771564 cumulative IPC: 0.795892 (Simulation time: 0 hr 31 min 22 sec) 
select_counter is 1490
Heartbeat CPU 0 instructions: 89000000 cycles: 104265622 heartbeat IPC: 0.65972 cumulative IPC: 0.793818 (Simulation time: 0 hr 31 min 43 sec) 
select_counter is 1470
Heartbeat CPU 0 instructions: 90000002 cycles: 105764024 heartbeat IPC: 0.667379 cumulative IPC: 0.791943 (Simulation time: 0 hr 32 min 3 sec) 
select_counter is 1456
Heartbeat CPU 0 instructions: 91000000 cycles: 107470701 heartbeat IPC: 0.585933 cumulative IPC: 0.78852 (Simulation time: 0 hr 32 min 24 sec) 
select_counter is 1448
Heartbeat CPU 0 instructions: 92000000 cycles: 108971390 heartbeat IPC: 0.666361 cumulative IPC: 0.786761 (Simulation time: 0 hr 32 min 43 sec) 
select_counter is 1436
Heartbeat CPU 0 instructions: 93000001 cycles: 110239536 heartbeat IPC: 0.788554 cumulative IPC: 0.786782 (Simulation time: 0 hr 33 min 5 sec) 
select_counter is 1383
Heartbeat CPU 0 instructions: 94000000 cycles: 111992991 heartbeat IPC: 0.570302 cumulative IPC: 0.783243 (Simulation time: 0 hr 33 min 22 sec) 
select_counter is 1364
Heartbeat CPU 0 instructions: 95000002 cycles: 113605346 heartbeat IPC: 0.620212 cumulative IPC: 0.780828 (Simulation time: 0 hr 33 min 41 sec) 
select_counter is 1354
Heartbeat CPU 0 instructions: 96000000 cycles: 115215199 heartbeat IPC: 0.621174 cumulative IPC: 0.778502 (Simulation time: 0 hr 34 min 2 sec) 
select_counter is 1341
Heartbeat CPU 0 instructions: 97000000 cycles: 116628680 heartbeat IPC: 0.707473 cumulative IPC: 0.777604 (Simulation time: 0 hr 34 min 22 sec) 
select_counter is 1318
Heartbeat CPU 0 instructions: 98000000 cycles: 117907619 heartbeat IPC: 0.781898 cumulative IPC: 0.777653 (Simulation time: 0 hr 34 min 41 sec) 
select_counter is 1311
Heartbeat CPU 0 instructions: 99000003 cycles: 119043964 heartbeat IPC: 0.880017 cumulative IPC: 0.778671 (Simulation time: 0 hr 35 min 2 sec) 
select_counter is 1305
Heartbeat CPU 0 instructions: 100000000 cycles: 120543096 heartbeat IPC: 0.667051 cumulative IPC: 0.777225 (Simulation time: 0 hr 35 min 23 sec) 
select_counter is 1263
Heartbeat CPU 0 instructions: 101000000 cycles: 122053592 heartbeat IPC: 0.662034 cumulative IPC: 0.775742 (Simulation time: 0 hr 35 min 42 sec) 
select_counter is 1262
Heartbeat CPU 0 instructions: 102000001 cycles: 123753577 heartbeat IPC: 0.588241 cumulative IPC: 0.773064 (Simulation time: 0 hr 35 min 59 sec) 
select_counter is 1258
Heartbeat CPU 0 instructions: 103000002 cycles: 125076552 heartbeat IPC: 0.755873 cumulative IPC: 0.772875 (Simulation time: 0 hr 36 min 19 sec) 
select_counter is 1258
Heartbeat CPU 0 instructions: 104000000 cycles: 126798595 heartbeat IPC: 0.580704 cumulative IPC: 0.770163 (Simulation time: 0 hr 36 min 35 sec) 
select_counter is 1243
Heartbeat CPU 0 instructions: 105000002 cycles: 127772957 heartbeat IPC: 1.02631 cumulative IPC: 0.772192 (Simulation time: 0 hr 36 min 49 sec) 
select_counter is 1241
Heartbeat CPU 0 instructions: 106000000 cycles: 129309348 heartbeat IPC: 0.650875 cumulative IPC: 0.770696 (Simulation time: 0 hr 37 min 6 sec) 
select_counter is 1242
Heartbeat CPU 0 instructions: 107000002 cycles: 130876868 heartbeat IPC: 0.637952 cumulative IPC: 0.769046 (Simulation time: 0 hr 37 min 24 sec) 
select_counter is 1228
Heartbeat CPU 0 instructions: 108000000 cycles: 132210302 heartbeat IPC: 0.749942 cumulative IPC: 0.768846 (Simulation time: 0 hr 37 min 41 sec) 
select_counter is 1203
Heartbeat CPU 0 instructions: 109000002 cycles: 133919737 heartbeat IPC: 0.58499 cumulative IPC: 0.766413 (Simulation time: 0 hr 37 min 55 sec) 
select_counter is 1192
Heartbeat CPU 0 instructions: 110000000 cycles: 135151961 heartbeat IPC: 0.811539 cumulative IPC: 0.76684 (Simulation time: 0 hr 38 min 9 sec) 
select_counter is 1184
Finished CPU 0 instructions: 100000003 cycles: 130405372 cummulative IPC: 0.76684 (Simulation time: 0 hr 38 min 9 sec) 

ChampSim completed all CPUs

Region of Interest Statistics

CPU 0 cummulative IPC: 0.76684 instructions: 100000003 cycles: 130405372
LLC TOTAL     ACCESS:    1571063  HIT:    1392117  MISS:     178946
LLC LOAD      ACCESS:     429794  HIT:     401568  MISS:      28226
LLC RFO       ACCESS:     294150  HIT:     239206  MISS:      54944
LLC PREFETCH  ACCESS:     521155  HIT:     450065  MISS:      71090
LLC WRITEBACK ACCESS:     325964  HIT:     301278  MISS:      24686
Ship samples: 
8, 47, 67, 123, 134, 164, 222, 227, 266, 297, 329, 358, 403, 434, 455, 480, 536, 553, 607, 619, 669, 694, 716, 748, 775, 823, 860, 883, 900, 935, 974, 1009, 1032, 1085, 1118, 1132, 1176, 1206, 1245, 1274, 1304, 1333, 1359, 1380, 1421, 1470, 1491, 1505, 1545, 1570, 1608, 1634, 1682, 1701, 1755, 1779, 1809, 1831, 1873, 1907, 1943, 1978, 1984, 2022, 
Lime duel samples: 
23, 63, 95, 127, 148, 185, 209, 252, 272, 301, 321, 359, 386, 422, 472, 489, 518, 544, 599, 612, 645, 687, 731, 762, 790, 821, 849, 893, 911, 933, 971, 1000, 1030, 1082, 1095, 1129, 1179, 1187, 1220, 1250, 1284, 1329, 1364, 1384, 1427, 1451, 1499, 1519, 1563, 1599, 1607, 1647, 1664, 1720, 1743, 1791, 1811, 1833, 1856, 1899, 1951, 1969, 1994, 2044, 
Lime samples: 
23, 148, 272, 386, 518, 645, 790, 911, 1030, 1179, 1284, 1427, 1563, 1664, 1811, 1951, 
Insertion Distribution: 
	LOAD 14786 0 0 0 0 0 6490 184 
	RFO 15849 0 0 0 0 0 9923 2975 
	PREF 0 13332 0 0 0 0 20153 7367 
	WRITEBACK 0 0 0 0 0 0 0 5012 
Total Prefetch Downgrades: 6433
