Initialize SIGNATURE TABLE
ST_SET: 1
ST_WAY: 256
ST_TAG_BIT: 16
ST_TAG_MASK: ffff

Initialize PATTERN TABLE
PT_SET: 512
PT_WAY: 4
SIG_DELTA_BIT: 7
C_SIG_BIT: 4
C_DELTA_BIT: 4

Initialize PREFETCH FILTER
FILTER_SET: 1024

*** ChampSim Multicore Out-of-Order Simulator ***

Warmup Instructions: 50000000
Simulation Instructions: 50000000
Number of CPUs: 1
LLC sets: 2048
LLC ways: 16
Off-chip DRAM Size: 4096 MB Channels: 1 Width: 64-bit Data Rate: 3200 MT/s

CPU 0 runs /Users/gandhardeshpande/Desktop/CSE240C/HW1/ChampSim/ipc1_public/client_004.champsimtrace.xz
CPU 0 L1I next line prefetcher
Running FNL-MMA for L1I
CPU 0 L1D next line prefetcher
Heartbeat CPU 0 instructions: 10000000 cycles: 3592338 heartbeat IPC: 2.7837 cumulative IPC: 2.7837 (Simulation time: 0 hr 0 min 14 sec) 
Heartbeat CPU 0 instructions: 20000003 cycles: 7056782 heartbeat IPC: 2.88647 cumulative IPC: 2.83415 (Simulation time: 0 hr 0 min 27 sec) 
Heartbeat CPU 0 instructions: 30000000 cycles: 10647345 heartbeat IPC: 2.78508 cumulative IPC: 2.8176 (Simulation time: 0 hr 0 min 40 sec) 
Heartbeat CPU 0 instructions: 40000003 cycles: 14327824 heartbeat IPC: 2.71704 cumulative IPC: 2.79177 (Simulation time: 0 hr 0 min 54 sec) 
Heartbeat CPU 0 instructions: 50000001 cycles: 17845848 heartbeat IPC: 2.8425 cumulative IPC: 2.80177 (Simulation time: 0 hr 1 min 8 sec) 

Warmup complete CPU 0 instructions: 50000001 cycles: 17845848 (Simulation time: 0 hr 1 min 8 sec) 

Heartbeat CPU 0 instructions: 60000002 cycles: 25630643 heartbeat IPC: 1.28456 cumulative IPC: 1.28456 (Simulation time: 0 hr 1 min 19 sec) 
Heartbeat CPU 0 instructions: 70000001 cycles: 33486754 heartbeat IPC: 1.27289 cumulative IPC: 1.2787 (Simulation time: 0 hr 1 min 30 sec) 
Heartbeat CPU 0 instructions: 80000002 cycles: 42154737 heartbeat IPC: 1.15367 cumulative IPC: 1.23412 (Simulation time: 0 hr 1 min 41 sec) 
Heartbeat CPU 0 instructions: 90000000 cycles: 50249569 heartbeat IPC: 1.23536 cumulative IPC: 1.23443 (Simulation time: 0 hr 1 min 52 sec) 
Heartbeat CPU 0 instructions: 100000002 cycles: 58099497 heartbeat IPC: 1.2739 cumulative IPC: 1.24212 (Simulation time: 0 hr 2 min 3 sec) 
Finished CPU 0 instructions: 50000001 cycles: 40253649 cumulative IPC: 1.24212 (Simulation time: 0 hr 2 min 3 sec) 

ChampSim completed all CPUs

Region of Interest Statistics

CPU 0 cumulative IPC: 1.24212 instructions: 50000001 cycles: 40253649
L1D TOTAL     ACCESS:   21976740  HIT:   21087754  MISS:     888986
L1D LOAD      ACCESS:    8728829  HIT:    8333013  MISS:     395816
L1D RFO       ACCESS:    4811679  HIT:    4690276  MISS:     121403
L1D PREFETCH  ACCESS:    8436232  HIT:    8064465  MISS:     371767
L1D WRITEBACK ACCESS:          0  HIT:          0  MISS:          0
L1D PREFETCH  REQUESTED:    8767961  ISSUED:    8608405  USEFUL:     133257  USELESS:     238518
L1D AVERAGE MISS LATENCY: 29.8169 cycles
L1I TOTAL     ACCESS:   10721570  HIT:    9905071  MISS:     816499
L1I LOAD      ACCESS:    9389730  HIT:    9215908  MISS:     173822
L1I RFO       ACCESS:          0  HIT:          0  MISS:          0
L1I PREFETCH  ACCESS:    1331840  HIT:     689163  MISS:     642677
L1I WRITEBACK ACCESS:          0  HIT:          0  MISS:          0
L1I PREFETCH  REQUESTED:    1409522  ISSUED:    1409372  USEFUL:     420723  USELESS:     221942
L1I AVERAGE MISS LATENCY: 27.574 cycles
L2C TOTAL     ACCESS:    2531327  HIT:    2234349  MISS:     296978
L2C LOAD      ACCESS:     529849  HIT:     460186  MISS:      69663
L2C RFO       ACCESS:     117418  HIT:      46198  MISS:      71220
L2C PREFETCH  ACCESS:    1662042  HIT:    1506587  MISS:     155455
L2C WRITEBACK ACCESS:     222018  HIT:     221378  MISS:        640
L2C PREFETCH  REQUESTED:    1801476  ISSUED:    1801001  USEFUL:      26275  USELESS:     127938
L2C AVERAGE MISS LATENCY: 87.8251 cycles
LLC TOTAL     ACCESS:     717521  HIT:     580174  MISS:     137347
LLC LOAD      ACCESS:      69650  HIT:      49924  MISS:      19726
LLC RFO       ACCESS:      71218  HIT:      40221  MISS:      30997
LLC PREFETCH  ACCESS:     476698  HIT:     390402  MISS:      86296
LLC WRITEBACK ACCESS:      99955  HIT:      99627  MISS:        328
LLC PREFETCH  REQUESTED:          0  ISSUED:          0  USEFUL:      18954  USELESS:      67456
LLC AVERAGE MISS LATENCY: 183.219 cycles
Major fault: 0 Minor fault: 3981
I-Shadow cache 408 bytes
Touched + WorthPF tables 24576 bytes 
MMA filter 174 bytes 
FNL filter 272 bytes 
TOTAL PREFETCHER STORAGE SIZE: 98134 bytes
CPU 0 L1I next line prefetcher final stats
CPU 0 L1D next line prefetcher final stats

DRAM Statistics
 CHANNEL 0
 RQ ROW_BUFFER_HIT:      34635  ROW_BUFFER_MISS:     102361
 DBUS_CONGESTED:      72296
 WQ ROW_BUFFER_HIT:       8423  ROW_BUFFER_MISS:      36824  FULL:          0

 AVG_CONGESTED_CYCLE: 6

CPU 0 Branch Prediction Accuracy: 94.1242% MPKI: 11.6089 Average ROB Occupancy at Mispredict: 55.2197

Branch types
NOT_BRANCH: 40121080 80.2422%
BRANCH_DIRECT_JUMP: 644555 1.28911%
BRANCH_INDIRECT: 201946 0.403892%
BRANCH_CONDITIONAL: 7003557 14.0071%
BRANCH_DIRECT_CALL: 564821 1.12964%
BRANCH_INDIRECT_CALL: 445012 0.890024%
BRANCH_RETURN: 1018716 2.03743%
BRANCH_OTHER: 0 0%

