Initialize SIGNATURE TABLE
ST_SET: 1
ST_WAY: 256
ST_TAG_BIT: 16
ST_TAG_MASK: ffff

Initialize PATTERN TABLE
PT_SET: 512
PT_WAY: 4
SIG_DELTA_BIT: 7
C_SIG_BIT: 4
C_DELTA_BIT: 4

Initialize PREFETCH FILTER
FILTER_SET: 1024

*** ChampSim Multicore Out-of-Order Simulator ***

Warmup Instructions: 50000000
Simulation Instructions: 50000000
Number of CPUs: 1
LLC sets: 2048
LLC ways: 16
Off-chip DRAM Size: 4096 MB Channels: 1 Width: 64-bit Data Rate: 3200 MT/s

CPU 0 runs /Users/gandhardeshpande/Desktop/CSE240C/HW1/ChampSim/ipc1_public/spec_perlbench_001.champsimtrace.xz
CPU 0 L1I next line prefetcher
Running FNL-MMA for L1I
CPU 0 L1D next line prefetcher
Heartbeat CPU 0 instructions: 10000000 cycles: 3275749 heartbeat IPC: 3.05274 cumulative IPC: 3.05274 (Simulation time: 0 hr 0 min 13 sec) 
Heartbeat CPU 0 instructions: 20000000 cycles: 6540277 heartbeat IPC: 3.06323 cumulative IPC: 3.05797 (Simulation time: 0 hr 0 min 27 sec) 
Heartbeat CPU 0 instructions: 30000002 cycles: 9856773 heartbeat IPC: 3.01523 cumulative IPC: 3.04359 (Simulation time: 0 hr 0 min 41 sec) 
Heartbeat CPU 0 instructions: 40000002 cycles: 13112175 heartbeat IPC: 3.07182 cumulative IPC: 3.0506 (Simulation time: 0 hr 0 min 54 sec) 
Heartbeat CPU 0 instructions: 50000001 cycles: 16386013 heartbeat IPC: 3.05452 cumulative IPC: 3.05138 (Simulation time: 0 hr 1 min 6 sec) 

Warmup complete CPU 0 instructions: 50000001 cycles: 16386013 (Simulation time: 0 hr 1 min 6 sec) 

Heartbeat CPU 0 instructions: 60000001 cycles: 24710107 heartbeat IPC: 1.20133 cumulative IPC: 1.20133 (Simulation time: 0 hr 1 min 18 sec) 
Heartbeat CPU 0 instructions: 70000000 cycles: 32876806 heartbeat IPC: 1.22448 cumulative IPC: 1.2128 (Simulation time: 0 hr 1 min 31 sec) 
Heartbeat CPU 0 instructions: 80000000 cycles: 41288911 heartbeat IPC: 1.18876 cumulative IPC: 1.20468 (Simulation time: 0 hr 1 min 42 sec) 
Heartbeat CPU 0 instructions: 90000000 cycles: 47009560 heartbeat IPC: 1.74805 cumulative IPC: 1.30618 (Simulation time: 0 hr 1 min 52 sec) 
Heartbeat CPU 0 instructions: 100000002 cycles: 52887784 heartbeat IPC: 1.70119 cumulative IPC: 1.3698 (Simulation time: 0 hr 2 min 1 sec) 
Finished CPU 0 instructions: 50000001 cycles: 36501771 cumulative IPC: 1.3698 (Simulation time: 0 hr 2 min 1 sec) 

ChampSim completed all CPUs

Region of Interest Statistics

CPU 0 cumulative IPC: 1.3698 instructions: 50000001 cycles: 36501771
L1D TOTAL     ACCESS:   20714146  HIT:   20299045  MISS:     415101
L1D LOAD      ACCESS:    7186199  HIT:    6972553  MISS:     213646
L1D RFO       ACCESS:    6542776  HIT:    6524255  MISS:      18521
L1D PREFETCH  ACCESS:    6985171  HIT:    6802237  MISS:     182934
L1D WRITEBACK ACCESS:          0  HIT:          0  MISS:          0
L1D PREFETCH  REQUESTED:    7201923  ISSUED:    7085580  USEFUL:      55247  USELESS:     127682
L1D AVERAGE MISS LATENCY: 57.565 cycles
L1I TOTAL     ACCESS:   10713432  HIT:   10073271  MISS:     640161
L1I LOAD      ACCESS:    9150098  HIT:    9044177  MISS:     105921
L1I RFO       ACCESS:          0  HIT:          0  MISS:          0
L1I PREFETCH  ACCESS:    1563334  HIT:    1029094  MISS:     534240
L1I WRITEBACK ACCESS:          0  HIT:          0  MISS:          0
L1I PREFETCH  REQUESTED:    1628556  ISSUED:    1628542  USEFUL:     333724  USELESS:     200530
L1I AVERAGE MISS LATENCY: 17.3063 cycles
L2C TOTAL     ACCESS:    1470278  HIT:    1301560  MISS:     168718
L2C LOAD      ACCESS:     299813  HIT:     217674  MISS:      82139
L2C RFO       ACCESS:      18277  HIT:      12883  MISS:       5394
L2C PREFETCH  ACCESS:    1073253  HIT:     992441  MISS:      80812
L2C WRITEBACK ACCESS:      78935  HIT:      78562  MISS:        373
L2C PREFETCH  REQUESTED:    1134539  ISSUED:    1134526  USEFUL:       6318  USELESS:      74608
L2C AVERAGE MISS LATENCY: 117.649 cycles
LLC TOTAL     ACCESS:     442547  HIT:     297202  MISS:     145345
LLC LOAD      ACCESS:      82135  HIT:      33733  MISS:      48402
LLC RFO       ACCESS:       5394  HIT:       2409  MISS:       2985
LLC PREFETCH  ACCESS:     329701  HIT:     236282  MISS:      93419
LLC WRITEBACK ACCESS:      25317  HIT:      24778  MISS:        539
LLC PREFETCH  REQUESTED:          0  ISSUED:          0  USEFUL:      15545  USELESS:      78000
LLC AVERAGE MISS LATENCY: 159.58 cycles
Major fault: 0 Minor fault: 6365
I-Shadow cache 408 bytes
Touched + WorthPF tables 24576 bytes 
MMA filter 174 bytes 
FNL filter 272 bytes 
TOTAL PREFETCHER STORAGE SIZE: 98134 bytes
CPU 0 L1I next line prefetcher final stats
CPU 0 L1D next line prefetcher final stats

DRAM Statistics
 CHANNEL 0
 RQ ROW_BUFFER_HIT:      32742  ROW_BUFFER_MISS:     112063
 DBUS_CONGESTED:      61364
 WQ ROW_BUFFER_HIT:       4179  ROW_BUFFER_MISS:      13295  FULL:          0

 AVG_CONGESTED_CYCLE: 4

CPU 0 Branch Prediction Accuracy: 98.7418% MPKI: 2.47758 Average ROB Occupancy at Mispredict: 77.0656

Branch types
NOT_BRANCH: 40154100 80.3082%
BRANCH_DIRECT_JUMP: 817094 1.63419%
BRANCH_INDIRECT: 303787 0.607574%
BRANCH_CONDITIONAL: 7492103 14.9842%
BRANCH_DIRECT_CALL: 471777 0.943554%
BRANCH_INDIRECT_CALL: 144546 0.289092%
BRANCH_RETURN: 616324 1.23265%
BRANCH_OTHER: 0 0%

