
*** ChampSim Multicore Out-of-Order Simulator ***

Warmup Instructions: 10000000
Simulation Instructions: 100000000
Configuration: 2
Number of CPUs: 1
LLC sets: 2048
LLC ways: 16
Off-chip DRAM Channels: 1 Width: 64-bit Data Rate: 1600 MT/s

CPU 0 runs /datasets/cs240c-wi22-a00-public/data/Assignment2-gz/astar_313B.trace.gz
CPU 0 L1D next line prefetcher
CPU 0 L2C IP-based stride prefetcher
Initialize SRRIP state
Heartbeat CPU 0 instructions: 1000001 cycles: 675694 heartbeat IPC: 1.47996 cumulative IPC: 1.47996 (Simulation time: 0 hr 0 min 51 sec) 
Heartbeat CPU 0 instructions: 2000003 cycles: 1263005 heartbeat IPC: 1.70268 cumulative IPC: 1.58353 (Simulation time: 0 hr 1 min 39 sec) 
Heartbeat CPU 0 instructions: 3000003 cycles: 1936956 heartbeat IPC: 1.48379 cumulative IPC: 1.54882 (Simulation time: 0 hr 2 min 19 sec) 
Heartbeat CPU 0 instructions: 4000000 cycles: 2610439 heartbeat IPC: 1.48481 cumulative IPC: 1.53231 (Simulation time: 0 hr 3 min 5 sec) 
Heartbeat CPU 0 instructions: 5000002 cycles: 3284685 heartbeat IPC: 1.48314 cumulative IPC: 1.52222 (Simulation time: 0 hr 3 min 45 sec) 
Heartbeat CPU 0 instructions: 6000001 cycles: 3870918 heartbeat IPC: 1.7058 cumulative IPC: 1.55002 (Simulation time: 0 hr 4 min 27 sec) 
Heartbeat CPU 0 instructions: 7000001 cycles: 4439580 heartbeat IPC: 1.75851 cumulative IPC: 1.57673 (Simulation time: 0 hr 5 min 16 sec) 
Heartbeat CPU 0 instructions: 8000000 cycles: 4991312 heartbeat IPC: 1.81247 cumulative IPC: 1.60278 (Simulation time: 0 hr 5 min 59 sec) 
Heartbeat CPU 0 instructions: 9000001 cycles: 5552874 heartbeat IPC: 1.78075 cumulative IPC: 1.62078 (Simulation time: 0 hr 6 min 39 sec) 
Heartbeat CPU 0 instructions: 10000002 cycles: 6228010 heartbeat IPC: 1.48118 cumulative IPC: 1.60565 (Simulation time: 0 hr 7 min 19 sec) 

Warmup complete CPU 0 instructions: 10000002 cycles: 6228010 (Simulation time: 0 hr 7 min 19 sec) 

Heartbeat CPU 0 instructions: 11000000 cycles: 13300017 heartbeat IPC: 0.141402 cumulative IPC: 0.141402 (Simulation time: 0 hr 8 min 10 sec) 
Heartbeat CPU 0 instructions: 12000000 cycles: 20817796 heartbeat IPC: 0.133018 cumulative IPC: 0.137082 (Simulation time: 0 hr 8 min 59 sec) 
Heartbeat CPU 0 instructions: 13000003 cycles: 29486682 heartbeat IPC: 0.115355 cumulative IPC: 0.128984 (Simulation time: 0 hr 9 min 45 sec) 
Heartbeat CPU 0 instructions: 14000002 cycles: 35927895 heartbeat IPC: 0.15525 cumulative IPC: 0.134681 (Simulation time: 0 hr 10 min 25 sec) 
Heartbeat CPU 0 instructions: 15000000 cycles: 42870300 heartbeat IPC: 0.144042 cumulative IPC: 0.136454 (Simulation time: 0 hr 11 min 8 sec) 
Heartbeat CPU 0 instructions: 16000000 cycles: 49574808 heartbeat IPC: 0.149153 cumulative IPC: 0.138418 (Simulation time: 0 hr 11 min 50 sec) 
Heartbeat CPU 0 instructions: 17000001 cycles: 56037960 heartbeat IPC: 0.154723 cumulative IPC: 0.140534 (Simulation time: 0 hr 12 min 37 sec) 
Heartbeat CPU 0 instructions: 18000000 cycles: 65181981 heartbeat IPC: 0.109361 cumulative IPC: 0.135699 (Simulation time: 0 hr 13 min 31 sec) 
Heartbeat CPU 0 instructions: 19000000 cycles: 71615312 heartbeat IPC: 0.15544 cumulative IPC: 0.137641 (Simulation time: 0 hr 14 min 17 sec) 
Heartbeat CPU 0 instructions: 20000000 cycles: 78595045 heartbeat IPC: 0.143272 cumulative IPC: 0.138184 (Simulation time: 0 hr 15 min 0 sec) 
Heartbeat CPU 0 instructions: 21000003 cycles: 87613448 heartbeat IPC: 0.110885 cumulative IPC: 0.135159 (Simulation time: 0 hr 15 min 45 sec) 
Heartbeat CPU 0 instructions: 22000002 cycles: 94997253 heartbeat IPC: 0.135431 cumulative IPC: 0.135182 (Simulation time: 0 hr 16 min 35 sec) 
Heartbeat CPU 0 instructions: 23000002 cycles: 101292519 heartbeat IPC: 0.15885 cumulative IPC: 0.136749 (Simulation time: 0 hr 17 min 18 sec) 
Heartbeat CPU 0 instructions: 24000000 cycles: 108088794 heartbeat IPC: 0.147139 cumulative IPC: 0.137442 (Simulation time: 0 hr 18 min 2 sec) 
Heartbeat CPU 0 instructions: 25000001 cycles: 116466765 heartbeat IPC: 0.119361 cumulative IPC: 0.136068 (Simulation time: 0 hr 18 min 55 sec) 
Heartbeat CPU 0 instructions: 26000002 cycles: 123333894 heartbeat IPC: 0.145621 cumulative IPC: 0.136628 (Simulation time: 0 hr 19 min 50 sec) 
Heartbeat CPU 0 instructions: 27000003 cycles: 132599803 heartbeat IPC: 0.107923 cumulative IPC: 0.134524 (Simulation time: 0 hr 20 min 49 sec) 
Heartbeat CPU 0 instructions: 28000000 cycles: 138271882 heartbeat IPC: 0.176302 cumulative IPC: 0.136318 (Simulation time: 0 hr 21 min 36 sec) 
Heartbeat CPU 0 instructions: 29000001 cycles: 146818696 heartbeat IPC: 0.117003 cumulative IPC: 0.135144 (Simulation time: 0 hr 22 min 33 sec) 
Heartbeat CPU 0 instructions: 30000001 cycles: 152736801 heartbeat IPC: 0.168973 cumulative IPC: 0.136511 (Simulation time: 0 hr 23 min 16 sec) 
Heartbeat CPU 0 instructions: 31000002 cycles: 158754275 heartbeat IPC: 0.166183 cumulative IPC: 0.137681 (Simulation time: 0 hr 24 min 1 sec) 
Heartbeat CPU 0 instructions: 32000000 cycles: 164457682 heartbeat IPC: 0.175333 cumulative IPC: 0.139038 (Simulation time: 0 hr 24 min 46 sec) 
Heartbeat CPU 0 instructions: 33000000 cycles: 170141560 heartbeat IPC: 0.175936 cumulative IPC: 0.140318 (Simulation time: 0 hr 25 min 35 sec) 
Heartbeat CPU 0 instructions: 34000000 cycles: 178940357 heartbeat IPC: 0.113652 cumulative IPC: 0.138959 (Simulation time: 0 hr 26 min 37 sec) 
Heartbeat CPU 0 instructions: 35000000 cycles: 185093053 heartbeat IPC: 0.16253 cumulative IPC: 0.13977 (Simulation time: 0 hr 27 min 23 sec) 
Heartbeat CPU 0 instructions: 36000000 cycles: 191676814 heartbeat IPC: 0.151889 cumulative IPC: 0.1402 (Simulation time: 0 hr 28 min 14 sec) 
Heartbeat CPU 0 instructions: 37000002 cycles: 200590335 heartbeat IPC: 0.112189 cumulative IPC: 0.138916 (Simulation time: 0 hr 29 min 18 sec) 
Heartbeat CPU 0 instructions: 38000000 cycles: 206424695 heartbeat IPC: 0.171398 cumulative IPC: 0.139862 (Simulation time: 0 hr 30 min 8 sec) 
Heartbeat CPU 0 instructions: 39000001 cycles: 215172659 heartbeat IPC: 0.114312 cumulative IPC: 0.138793 (Simulation time: 0 hr 31 min 3 sec) 
Heartbeat CPU 0 instructions: 40000000 cycles: 223939890 heartbeat IPC: 0.114061 cumulative IPC: 0.137797 (Simulation time: 0 hr 32 min 0 sec) 
Heartbeat CPU 0 instructions: 41000001 cycles: 230088074 heartbeat IPC: 0.16265 cumulative IPC: 0.138479 (Simulation time: 0 hr 32 min 51 sec) 
Heartbeat CPU 0 instructions: 42000003 cycles: 237151893 heartbeat IPC: 0.141567 cumulative IPC: 0.138574 (Simulation time: 0 hr 33 min 37 sec) 
Heartbeat CPU 0 instructions: 43000002 cycles: 246507461 heartbeat IPC: 0.106888 cumulative IPC: 0.13734 (Simulation time: 0 hr 34 min 31 sec) 
Heartbeat CPU 0 instructions: 44000000 cycles: 252176044 heartbeat IPC: 0.176411 cumulative IPC: 0.138241 (Simulation time: 0 hr 35 min 15 sec) 
Heartbeat CPU 0 instructions: 45000000 cycles: 258353690 heartbeat IPC: 0.161874 cumulative IPC: 0.13882 (Simulation time: 0 hr 35 min 54 sec) 
Heartbeat CPU 0 instructions: 46000002 cycles: 264709194 heartbeat IPC: 0.157344 cumulative IPC: 0.139275 (Simulation time: 0 hr 36 min 35 sec) 
Heartbeat CPU 0 instructions: 47000000 cycles: 271057568 heartbeat IPC: 0.15752 cumulative IPC: 0.139712 (Simulation time: 0 hr 37 min 19 sec) 
Heartbeat CPU 0 instructions: 48000000 cycles: 279417862 heartbeat IPC: 0.119613 cumulative IPC: 0.139097 (Simulation time: 0 hr 38 min 10 sec) 
Heartbeat CPU 0 instructions: 49000000 cycles: 285224667 heartbeat IPC: 0.172212 cumulative IPC: 0.139787 (Simulation time: 0 hr 38 min 53 sec) 
Heartbeat CPU 0 instructions: 50000000 cycles: 291382381 heartbeat IPC: 0.162398 cumulative IPC: 0.140275 (Simulation time: 0 hr 39 min 32 sec) 
Heartbeat CPU 0 instructions: 51000000 cycles: 298336187 heartbeat IPC: 0.143806 cumulative IPC: 0.140359 (Simulation time: 0 hr 40 min 15 sec) 
Heartbeat CPU 0 instructions: 52000000 cycles: 306484968 heartbeat IPC: 0.122718 cumulative IPC: 0.13988 (Simulation time: 0 hr 41 min 3 sec) 
Heartbeat CPU 0 instructions: 53000000 cycles: 313175618 heartbeat IPC: 0.149462 cumulative IPC: 0.140089 (Simulation time: 0 hr 41 min 50 sec) 
Heartbeat CPU 0 instructions: 54000000 cycles: 320884551 heartbeat IPC: 0.12972 cumulative IPC: 0.139835 (Simulation time: 0 hr 42 min 37 sec) 
Heartbeat CPU 0 instructions: 55000001 cycles: 329067164 heartbeat IPC: 0.12221 cumulative IPC: 0.139388 (Simulation time: 0 hr 43 min 22 sec) 
Heartbeat CPU 0 instructions: 56000000 cycles: 338932066 heartbeat IPC: 0.101369 cumulative IPC: 0.138261 (Simulation time: 0 hr 44 min 12 sec) 
Heartbeat CPU 0 instructions: 57000000 cycles: 345086168 heartbeat IPC: 0.162493 cumulative IPC: 0.138701 (Simulation time: 0 hr 44 min 54 sec) 
Heartbeat CPU 0 instructions: 58000001 cycles: 351407024 heartbeat IPC: 0.158207 cumulative IPC: 0.139058 (Simulation time: 0 hr 45 min 36 sec) 
Heartbeat CPU 0 instructions: 59000002 cycles: 359707656 heartbeat IPC: 0.120473 cumulative IPC: 0.138622 (Simulation time: 0 hr 46 min 21 sec) 
Heartbeat CPU 0 instructions: 60000000 cycles: 367229034 heartbeat IPC: 0.132954 cumulative IPC: 0.138504 (Simulation time: 0 hr 47 min 6 sec) 
Heartbeat CPU 0 instructions: 61000001 cycles: 373454032 heartbeat IPC: 0.160643 cumulative IPC: 0.138879 (Simulation time: 0 hr 47 min 52 sec) 
Heartbeat CPU 0 instructions: 62000001 cycles: 380113793 heartbeat IPC: 0.150156 cumulative IPC: 0.13908 (Simulation time: 0 hr 48 min 33 sec) 
Heartbeat CPU 0 instructions: 63000000 cycles: 387122611 heartbeat IPC: 0.142677 cumulative IPC: 0.139146 (Simulation time: 0 hr 49 min 15 sec) 
Heartbeat CPU 0 instructions: 64000000 cycles: 396126698 heartbeat IPC: 0.111061 cumulative IPC: 0.138498 (Simulation time: 0 hr 50 min 4 sec) 
Heartbeat CPU 0 instructions: 65000000 cycles: 402934746 heartbeat IPC: 0.146885 cumulative IPC: 0.138641 (Simulation time: 0 hr 50 min 53 sec) 
Heartbeat CPU 0 instructions: 66000001 cycles: 409703754 heartbeat IPC: 0.147732 cumulative IPC: 0.138794 (Simulation time: 0 hr 51 min 32 sec) 
Heartbeat CPU 0 instructions: 67000000 cycles: 417081786 heartbeat IPC: 0.135537 cumulative IPC: 0.138735 (Simulation time: 0 hr 52 min 11 sec) 
Heartbeat CPU 0 instructions: 68000000 cycles: 424648451 heartbeat IPC: 0.132159 cumulative IPC: 0.138617 (Simulation time: 0 hr 52 min 51 sec) 
Heartbeat CPU 0 instructions: 69000000 cycles: 436628294 heartbeat IPC: 0.0834735 cumulative IPC: 0.137082 (Simulation time: 0 hr 53 min 48 sec) 
Heartbeat CPU 0 instructions: 70000000 cycles: 443361442 heartbeat IPC: 0.148519 cumulative IPC: 0.137258 (Simulation time: 0 hr 54 min 28 sec) 
Heartbeat CPU 0 instructions: 71000002 cycles: 450272934 heartbeat IPC: 0.144687 cumulative IPC: 0.137373 (Simulation time: 0 hr 55 min 7 sec) 
Heartbeat CPU 0 instructions: 72000000 cycles: 457551961 heartbeat IPC: 0.137381 cumulative IPC: 0.137374 (Simulation time: 0 hr 55 min 44 sec) 
Heartbeat CPU 0 instructions: 73000003 cycles: 464905171 heartbeat IPC: 0.135995 cumulative IPC: 0.137352 (Simulation time: 0 hr 56 min 18 sec) 
Heartbeat CPU 0 instructions: 74000002 cycles: 473909087 heartbeat IPC: 0.111063 cumulative IPC: 0.136845 (Simulation time: 0 hr 56 min 49 sec) 
Heartbeat CPU 0 instructions: 75000000 cycles: 480394644 heartbeat IPC: 0.154188 cumulative IPC: 0.137083 (Simulation time: 1 hr 26 min 23 sec) 
Heartbeat CPU 0 instructions: 76000000 cycles: 486522347 heartbeat IPC: 0.163193 cumulative IPC: 0.137416 (Simulation time: 1 hr 26 min 55 sec) 
Heartbeat CPU 0 instructions: 77000000 cycles: 492728953 heartbeat IPC: 0.161119 cumulative IPC: 0.137718 (Simulation time: 1 hr 27 min 26 sec) 
Heartbeat CPU 0 instructions: 78000001 cycles: 498805652 heartbeat IPC: 0.164563 cumulative IPC: 0.138049 (Simulation time: 1 hr 27 min 55 sec) 
Heartbeat CPU 0 instructions: 79000000 cycles: 507725674 heartbeat IPC: 0.112107 cumulative IPC: 0.137588 (Simulation time: 1 hr 28 min 28 sec) 
Heartbeat CPU 0 instructions: 80000000 cycles: 513914908 heartbeat IPC: 0.161571 cumulative IPC: 0.13788 (Simulation time: 1 hr 28 min 55 sec) 
Heartbeat CPU 0 instructions: 81000001 cycles: 521528110 heartbeat IPC: 0.131351 cumulative IPC: 0.137784 (Simulation time: 1 hr 29 min 23 sec) 
Heartbeat CPU 0 instructions: 82000001 cycles: 528422077 heartbeat IPC: 0.145054 cumulative IPC: 0.13788 (Simulation time: 1 hr 29 min 52 sec) 
Heartbeat CPU 0 instructions: 83000002 cycles: 534259645 heartbeat IPC: 0.171304 cumulative IPC: 0.138249 (Simulation time: 1 hr 30 min 18 sec) 
Heartbeat CPU 0 instructions: 84000000 cycles: 540758528 heartbeat IPC: 0.153872 cumulative IPC: 0.138439 (Simulation time: 1 hr 30 min 44 sec) 
Heartbeat CPU 0 instructions: 85000000 cycles: 547993118 heartbeat IPC: 0.138225 cumulative IPC: 0.138436 (Simulation time: 1 hr 31 min 11 sec) 
Heartbeat CPU 0 instructions: 86000001 cycles: 556029429 heartbeat IPC: 0.124435 cumulative IPC: 0.138232 (Simulation time: 1 hr 31 min 40 sec) 
Heartbeat CPU 0 instructions: 87000000 cycles: 561698726 heartbeat IPC: 0.176389 cumulative IPC: 0.138621 (Simulation time: 1 hr 32 min 2 sec) 
Heartbeat CPU 0 instructions: 88000000 cycles: 567874409 heartbeat IPC: 0.161925 cumulative IPC: 0.138877 (Simulation time: 1 hr 32 min 22 sec) 
Heartbeat CPU 0 instructions: 89000002 cycles: 574140911 heartbeat IPC: 0.159579 cumulative IPC: 0.139106 (Simulation time: 1 hr 32 min 44 sec) 
Heartbeat CPU 0 instructions: 90000002 cycles: 580171183 heartbeat IPC: 0.16583 cumulative IPC: 0.139387 (Simulation time: 1 hr 33 min 6 sec) 
Heartbeat CPU 0 instructions: 91000001 cycles: 588984974 heartbeat IPC: 0.113458 cumulative IPC: 0.138994 (Simulation time: 1 hr 33 min 31 sec) 
Heartbeat CPU 0 instructions: 92000000 cycles: 595639128 heartbeat IPC: 0.150282 cumulative IPC: 0.139122 (Simulation time: 1 hr 33 min 52 sec) 
Heartbeat CPU 0 instructions: 93000003 cycles: 603050572 heartbeat IPC: 0.134927 cumulative IPC: 0.13907 (Simulation time: 1 hr 34 min 13 sec) 
Heartbeat CPU 0 instructions: 94000000 cycles: 610889287 heartbeat IPC: 0.127572 cumulative IPC: 0.138921 (Simulation time: 1 hr 34 min 31 sec) 
Heartbeat CPU 0 instructions: 95000000 cycles: 617574941 heartbeat IPC: 0.149574 cumulative IPC: 0.139037 (Simulation time: 1 hr 34 min 47 sec) 
Heartbeat CPU 0 instructions: 96000000 cycles: 626657559 heartbeat IPC: 0.1101 cumulative IPC: 0.138614 (Simulation time: 1 hr 35 min 6 sec) 
Heartbeat CPU 0 instructions: 97000000 cycles: 633443576 heartbeat IPC: 0.147362 cumulative IPC: 0.138708 (Simulation time: 1 hr 35 min 23 sec) 
Heartbeat CPU 0 instructions: 98000003 cycles: 641012405 heartbeat IPC: 0.132121 cumulative IPC: 0.13863 (Simulation time: 1 hr 35 min 38 sec) 
Heartbeat CPU 0 instructions: 99000001 cycles: 648990522 heartbeat IPC: 0.125343 cumulative IPC: 0.138465 (Simulation time: 1 hr 35 min 55 sec) 
Heartbeat CPU 0 instructions: 100000000 cycles: 656644642 heartbeat IPC: 0.130648 cumulative IPC: 0.138373 (Simulation time: 1 hr 36 min 10 sec) 
Heartbeat CPU 0 instructions: 101000000 cycles: 665643438 heartbeat IPC: 0.111126 cumulative IPC: 0.138001 (Simulation time: 1 hr 36 min 25 sec) 
Heartbeat CPU 0 instructions: 102000001 cycles: 671608945 heartbeat IPC: 0.167631 cumulative IPC: 0.138267 (Simulation time: 1 hr 36 min 37 sec) 
Heartbeat CPU 0 instructions: 103000000 cycles: 678234315 heartbeat IPC: 0.150935 cumulative IPC: 0.138392 (Simulation time: 1 hr 36 min 49 sec) 
Heartbeat CPU 0 instructions: 104000000 cycles: 684540422 heartbeat IPC: 0.158576 cumulative IPC: 0.138579 (Simulation time: 1 hr 36 min 59 sec) 
Heartbeat CPU 0 instructions: 105000000 cycles: 690481673 heartbeat IPC: 0.168315 cumulative IPC: 0.138837 (Simulation time: 1 hr 37 min 8 sec) 
Heartbeat CPU 0 instructions: 106000000 cycles: 699567103 heartbeat IPC: 0.110066 cumulative IPC: 0.13846 (Simulation time: 1 hr 37 min 19 sec) 
Heartbeat CPU 0 instructions: 107000002 cycles: 706383737 heartbeat IPC: 0.1467 cumulative IPC: 0.138541 (Simulation time: 1 hr 37 min 27 sec) 
Heartbeat CPU 0 instructions: 108000000 cycles: 715669047 heartbeat IPC: 0.107697 cumulative IPC: 0.138137 (Simulation time: 1 hr 37 min 34 sec) 
Heartbeat CPU 0 instructions: 109000003 cycles: 722212163 heartbeat IPC: 0.152833 cumulative IPC: 0.138271 (Simulation time: 1 hr 37 min 41 sec) 
Heartbeat CPU 0 instructions: 110000003 cycles: 728651607 heartbeat IPC: 0.155293 cumulative IPC: 0.138423 (Simulation time: 1 hr 37 min 46 sec) 
Finished CPU 0 instructions: 100000001 cycles: 722423597 cummulative IPC: 0.138423 (Simulation time: 1 hr 37 min 46 sec) 

ChampSim completed all CPUs

Region of Interest Statistics

CPU 0 cummulative IPC: 0.138423 instructions: 100000001 cycles: 722423597
LLC TOTAL     ACCESS:    8751971  HIT:    2645967  MISS:    6106004
LLC LOAD      ACCESS:    1887792  HIT:     494602  MISS:    1393190
LLC RFO       ACCESS:    1828637  HIT:     448127  MISS:    1380510
LLC PREFETCH  ACCESS:    2272730  HIT:     172113  MISS:    2100617
LLC WRITEBACK ACCESS:    2762812  HIT:    1531125  MISS:    1231687
Insertion Distribution: 
	LOAD 476316 0 0 301904 722864 
	RFO 223857 0 0 108033 1317014 
	PREF 0 87768 0 181633 2048695 
	WRITEBACK 0 0 0 0 1480078 
Total Prefetch Downgrades: 83641
