
*** ChampSim Multicore Out-of-Order Simulator ***

Warmup Instructions: 10000000
Simulation Instructions: 100000000
Configuration: 2
Number of CPUs: 1
LLC sets: 2048
LLC ways: 16
Off-chip DRAM Channels: 1 Width: 64-bit Data Rate: 1600 MT/s

CPU 0 runs /datasets/cs240c-wi22-a00-public/data/Assignment2-gz/milc_409B.trace.gz
CPU 0 L1D next line prefetcher
CPU 0 L2C IP-based stride prefetcher
Initialize SRRIP state
Heartbeat CPU 0 instructions: 1000002 cycles: 407040 heartbeat IPC: 2.45677 cumulative IPC: 2.45677 (Simulation time: 0 hr 0 min 33 sec) 
Heartbeat CPU 0 instructions: 2000002 cycles: 889868 heartbeat IPC: 2.07113 cumulative IPC: 2.24753 (Simulation time: 0 hr 1 min 9 sec) 
Heartbeat CPU 0 instructions: 3000003 cycles: 1672035 heartbeat IPC: 1.2785 cumulative IPC: 1.79422 (Simulation time: 0 hr 1 min 54 sec) 
Heartbeat CPU 0 instructions: 4000000 cycles: 2454292 heartbeat IPC: 1.27835 cumulative IPC: 1.6298 (Simulation time: 0 hr 2 min 38 sec) 
Heartbeat CPU 0 instructions: 5000000 cycles: 3135412 heartbeat IPC: 1.46817 cumulative IPC: 1.59469 (Simulation time: 0 hr 3 min 24 sec) 
Heartbeat CPU 0 instructions: 6000003 cycles: 3679804 heartbeat IPC: 1.83692 cumulative IPC: 1.63052 (Simulation time: 0 hr 3 min 59 sec) 
Heartbeat CPU 0 instructions: 7000002 cycles: 4224110 heartbeat IPC: 1.8372 cumulative IPC: 1.65715 (Simulation time: 0 hr 4 min 38 sec) 
Heartbeat CPU 0 instructions: 8000000 cycles: 4768518 heartbeat IPC: 1.83685 cumulative IPC: 1.67767 (Simulation time: 0 hr 5 min 14 sec) 
Heartbeat CPU 0 instructions: 9000003 cycles: 5312844 heartbeat IPC: 1.83714 cumulative IPC: 1.69401 (Simulation time: 0 hr 5 min 47 sec) 
Heartbeat CPU 0 instructions: 10000000 cycles: 5857232 heartbeat IPC: 1.83692 cumulative IPC: 1.70729 (Simulation time: 0 hr 6 min 22 sec) 

Warmup complete CPU 0 instructions: 10000002 cycles: 5857233 (Simulation time: 0 hr 6 min 22 sec) 

Heartbeat CPU 0 instructions: 11000002 cycles: 7516915 heartbeat IPC: 0.602526 cumulative IPC: 0.602525 (Simulation time: 0 hr 7 min 0 sec) 
Heartbeat CPU 0 instructions: 12000000 cycles: 9176610 heartbeat IPC: 0.602519 cumulative IPC: 0.602522 (Simulation time: 0 hr 7 min 42 sec) 
Heartbeat CPU 0 instructions: 13000003 cycles: 10834200 heartbeat IPC: 0.603287 cumulative IPC: 0.602777 (Simulation time: 0 hr 8 min 22 sec) 
Heartbeat CPU 0 instructions: 14000002 cycles: 12492752 heartbeat IPC: 0.602935 cumulative IPC: 0.602816 (Simulation time: 0 hr 9 min 1 sec) 
Heartbeat CPU 0 instructions: 15000001 cycles: 14148726 heartbeat IPC: 0.603874 cumulative IPC: 0.603028 (Simulation time: 0 hr 9 min 40 sec) 
Heartbeat CPU 0 instructions: 16000000 cycles: 15809077 heartbeat IPC: 0.602282 cumulative IPC: 0.602903 (Simulation time: 0 hr 10 min 18 sec) 
Heartbeat CPU 0 instructions: 17000002 cycles: 17469843 heartbeat IPC: 0.602133 cumulative IPC: 0.602793 (Simulation time: 0 hr 10 min 57 sec) 
Heartbeat CPU 0 instructions: 18000000 cycles: 19128833 heartbeat IPC: 0.602775 cumulative IPC: 0.602791 (Simulation time: 0 hr 11 min 36 sec) 
Heartbeat CPU 0 instructions: 19000003 cycles: 20785482 heartbeat IPC: 0.60363 cumulative IPC: 0.602884 (Simulation time: 0 hr 12 min 20 sec) 
Heartbeat CPU 0 instructions: 20000000 cycles: 22442606 heartbeat IPC: 0.603453 cumulative IPC: 0.602941 (Simulation time: 0 hr 12 min 59 sec) 
Heartbeat CPU 0 instructions: 21000001 cycles: 24095405 heartbeat IPC: 0.605035 cumulative IPC: 0.603131 (Simulation time: 0 hr 13 min 38 sec) 
Heartbeat CPU 0 instructions: 22000002 cycles: 25754719 heartbeat IPC: 0.602659 cumulative IPC: 0.603091 (Simulation time: 0 hr 14 min 17 sec) 
Heartbeat CPU 0 instructions: 23000002 cycles: 27413169 heartbeat IPC: 0.602973 cumulative IPC: 0.603082 (Simulation time: 0 hr 14 min 54 sec) 
Heartbeat CPU 0 instructions: 24000000 cycles: 29068243 heartbeat IPC: 0.604201 cumulative IPC: 0.603162 (Simulation time: 0 hr 15 min 31 sec) 
Heartbeat CPU 0 instructions: 25000002 cycles: 30728963 heartbeat IPC: 0.60215 cumulative IPC: 0.603094 (Simulation time: 0 hr 16 min 9 sec) 
Heartbeat CPU 0 instructions: 26000000 cycles: 32383281 heartbeat IPC: 0.604477 cumulative IPC: 0.603181 (Simulation time: 0 hr 16 min 45 sec) 
Heartbeat CPU 0 instructions: 27000002 cycles: 34035031 heartbeat IPC: 0.60542 cumulative IPC: 0.603312 (Simulation time: 0 hr 17 min 27 sec) 
Heartbeat CPU 0 instructions: 28000000 cycles: 35696972 heartbeat IPC: 0.601705 cumulative IPC: 0.603222 (Simulation time: 0 hr 18 min 5 sec) 
Heartbeat CPU 0 instructions: 29000002 cycles: 37345644 heartbeat IPC: 0.60655 cumulative IPC: 0.603397 (Simulation time: 0 hr 18 min 51 sec) 
Heartbeat CPU 0 instructions: 30000000 cycles: 38998556 heartbeat IPC: 0.604992 cumulative IPC: 0.603476 (Simulation time: 0 hr 19 min 37 sec) 
Heartbeat CPU 0 instructions: 31000000 cycles: 40655234 heartbeat IPC: 0.603618 cumulative IPC: 0.603483 (Simulation time: 0 hr 20 min 22 sec) 
Heartbeat CPU 0 instructions: 32000000 cycles: 42312403 heartbeat IPC: 0.603439 cumulative IPC: 0.603481 (Simulation time: 0 hr 21 min 10 sec) 
Heartbeat CPU 0 instructions: 33000000 cycles: 43970903 heartbeat IPC: 0.602954 cumulative IPC: 0.603458 (Simulation time: 0 hr 21 min 58 sec) 
Heartbeat CPU 0 instructions: 34000000 cycles: 45631723 heartbeat IPC: 0.602112 cumulative IPC: 0.603402 (Simulation time: 0 hr 22 min 40 sec) 
Heartbeat CPU 0 instructions: 35000002 cycles: 47284888 heartbeat IPC: 0.604901 cumulative IPC: 0.603462 (Simulation time: 0 hr 23 min 21 sec) 
Heartbeat CPU 0 instructions: 36000000 cycles: 48939281 heartbeat IPC: 0.60445 cumulative IPC: 0.6035 (Simulation time: 0 hr 24 min 4 sec) 
Heartbeat CPU 0 instructions: 37000000 cycles: 50596188 heartbeat IPC: 0.603534 cumulative IPC: 0.603501 (Simulation time: 0 hr 24 min 48 sec) 
Heartbeat CPU 0 instructions: 38000002 cycles: 52250262 heartbeat IPC: 0.604569 cumulative IPC: 0.603539 (Simulation time: 0 hr 25 min 31 sec) 
Heartbeat CPU 0 instructions: 39000001 cycles: 53907199 heartbeat IPC: 0.603523 cumulative IPC: 0.603538 (Simulation time: 0 hr 26 min 16 sec) 
Heartbeat CPU 0 instructions: 40000000 cycles: 55565145 heartbeat IPC: 0.603155 cumulative IPC: 0.603526 (Simulation time: 0 hr 27 min 3 sec) 
Heartbeat CPU 0 instructions: 41000002 cycles: 57218520 heartbeat IPC: 0.604825 cumulative IPC: 0.603567 (Simulation time: 0 hr 27 min 46 sec) 
Heartbeat CPU 0 instructions: 42000001 cycles: 58874986 heartbeat IPC: 0.603694 cumulative IPC: 0.603571 (Simulation time: 0 hr 28 min 27 sec) 
Heartbeat CPU 0 instructions: 43000000 cycles: 60530861 heartbeat IPC: 0.60391 cumulative IPC: 0.603582 (Simulation time: 0 hr 29 min 6 sec) 
Heartbeat CPU 0 instructions: 44000000 cycles: 62191449 heartbeat IPC: 0.602196 cumulative IPC: 0.603541 (Simulation time: 0 hr 29 min 44 sec) 
Heartbeat CPU 0 instructions: 45000000 cycles: 63847137 heartbeat IPC: 0.603979 cumulative IPC: 0.603553 (Simulation time: 0 hr 30 min 27 sec) 
Heartbeat CPU 0 instructions: 46000000 cycles: 65503479 heartbeat IPC: 0.60374 cumulative IPC: 0.603558 (Simulation time: 0 hr 31 min 12 sec) 
Heartbeat CPU 0 instructions: 47000002 cycles: 67161932 heartbeat IPC: 0.602973 cumulative IPC: 0.603543 (Simulation time: 0 hr 31 min 55 sec) 
Heartbeat CPU 0 instructions: 48000000 cycles: 68818792 heartbeat IPC: 0.60355 cumulative IPC: 0.603543 (Simulation time: 0 hr 32 min 37 sec) 
Heartbeat CPU 0 instructions: 49000000 cycles: 70469372 heartbeat IPC: 0.605848 cumulative IPC: 0.603602 (Simulation time: 0 hr 33 min 19 sec) 
Heartbeat CPU 0 instructions: 50000001 cycles: 72126043 heartbeat IPC: 0.603621 cumulative IPC: 0.603602 (Simulation time: 0 hr 34 min 5 sec) 
Heartbeat CPU 0 instructions: 51000002 cycles: 73779674 heartbeat IPC: 0.60473 cumulative IPC: 0.60363 (Simulation time: 0 hr 34 min 46 sec) 
Heartbeat CPU 0 instructions: 52000000 cycles: 75621486 heartbeat IPC: 0.542942 cumulative IPC: 0.602027 (Simulation time: 0 hr 35 min 28 sec) 
Heartbeat CPU 0 instructions: 53000001 cycles: 77776398 heartbeat IPC: 0.464057 cumulative IPC: 0.597893 (Simulation time: 0 hr 36 min 11 sec) 
Heartbeat CPU 0 instructions: 54000001 cycles: 79990484 heartbeat IPC: 0.451654 cumulative IPC: 0.593526 (Simulation time: 0 hr 36 min 54 sec) 
Heartbeat CPU 0 instructions: 55000002 cycles: 82228159 heartbeat IPC: 0.446893 cumulative IPC: 0.589229 (Simulation time: 0 hr 37 min 39 sec) 
Heartbeat CPU 0 instructions: 56000000 cycles: 84472604 heartbeat IPC: 0.445544 cumulative IPC: 0.585127 (Simulation time: 0 hr 38 min 28 sec) 
Heartbeat CPU 0 instructions: 57000000 cycles: 86716891 heartbeat IPC: 0.445576 cumulative IPC: 0.581254 (Simulation time: 0 hr 39 min 12 sec) 
Heartbeat CPU 0 instructions: 58000002 cycles: 88919777 heartbeat IPC: 0.453951 cumulative IPC: 0.577878 (Simulation time: 0 hr 39 min 55 sec) 
Heartbeat CPU 0 instructions: 59000001 cycles: 90705389 heartbeat IPC: 0.560032 cumulative IPC: 0.577502 (Simulation time: 0 hr 40 min 34 sec) 
Heartbeat CPU 0 instructions: 60000000 cycles: 92364666 heartbeat IPC: 0.602672 cumulative IPC: 0.577985 (Simulation time: 0 hr 41 min 13 sec) 
Heartbeat CPU 0 instructions: 61000000 cycles: 94023245 heartbeat IPC: 0.602926 cumulative IPC: 0.578454 (Simulation time: 0 hr 42 min 2 sec) 
Heartbeat CPU 0 instructions: 62000000 cycles: 95680692 heartbeat IPC: 0.603338 cumulative IPC: 0.578913 (Simulation time: 0 hr 42 min 38 sec) 
Heartbeat CPU 0 instructions: 63000003 cycles: 97345113 heartbeat IPC: 0.600811 cumulative IPC: 0.579312 (Simulation time: 0 hr 43 min 14 sec) 
Heartbeat CPU 0 instructions: 64000000 cycles: 99012530 heartbeat IPC: 0.599728 cumulative IPC: 0.579677 (Simulation time: 0 hr 43 min 52 sec) 
Heartbeat CPU 0 instructions: 65000002 cycles: 100682606 heartbeat IPC: 0.598776 cumulative IPC: 0.580014 (Simulation time: 0 hr 44 min 28 sec) 
Heartbeat CPU 0 instructions: 66000002 cycles: 102346089 heartbeat IPC: 0.601148 cumulative IPC: 0.580378 (Simulation time: 0 hr 45 min 4 sec) 
Heartbeat CPU 0 instructions: 67000001 cycles: 104012485 heartbeat IPC: 0.600097 cumulative IPC: 0.580713 (Simulation time: 0 hr 45 min 43 sec) 
Heartbeat CPU 0 instructions: 68000000 cycles: 105680981 heartbeat IPC: 0.599342 cumulative IPC: 0.581024 (Simulation time: 0 hr 46 min 20 sec) 
Heartbeat CPU 0 instructions: 69000000 cycles: 107352338 heartbeat IPC: 0.598316 cumulative IPC: 0.581309 (Simulation time: 0 hr 46 min 56 sec) 
Heartbeat CPU 0 instructions: 70000000 cycles: 109019011 heartbeat IPC: 0.599998 cumulative IPC: 0.581611 (Simulation time: 0 hr 47 min 31 sec) 
Heartbeat CPU 0 instructions: 71000002 cycles: 110687583 heartbeat IPC: 0.599316 cumulative IPC: 0.581893 (Simulation time: 0 hr 48 min 7 sec) 
Heartbeat CPU 0 instructions: 72000000 cycles: 112356092 heartbeat IPC: 0.599336 cumulative IPC: 0.582166 (Simulation time: 0 hr 48 min 44 sec) 
Heartbeat CPU 0 instructions: 73000003 cycles: 114020932 heartbeat IPC: 0.60066 cumulative IPC: 0.582451 (Simulation time: 0 hr 49 min 19 sec) 
Heartbeat CPU 0 instructions: 74000002 cycles: 115695249 heartbeat IPC: 0.597258 cumulative IPC: 0.582676 (Simulation time: 0 hr 49 min 55 sec) 
Heartbeat CPU 0 instructions: 75000003 cycles: 117359395 heartbeat IPC: 0.600909 cumulative IPC: 0.582948 (Simulation time: 0 hr 50 min 29 sec) 
Heartbeat CPU 0 instructions: 76000000 cycles: 119030172 heartbeat IPC: 0.598522 cumulative IPC: 0.583178 (Simulation time: 0 hr 51 min 4 sec) 
Heartbeat CPU 0 instructions: 77000003 cycles: 120699328 heartbeat IPC: 0.599107 cumulative IPC: 0.58341 (Simulation time: 0 hr 51 min 39 sec) 
Heartbeat CPU 0 instructions: 78000000 cycles: 122365210 heartbeat IPC: 0.600281 cumulative IPC: 0.583651 (Simulation time: 0 hr 52 min 15 sec) 
Heartbeat CPU 0 instructions: 79000000 cycles: 124032678 heartbeat IPC: 0.599712 cumulative IPC: 0.583878 (Simulation time: 0 hr 52 min 50 sec) 
Heartbeat CPU 0 instructions: 80000000 cycles: 125697209 heartbeat IPC: 0.60077 cumulative IPC: 0.584112 (Simulation time: 0 hr 53 min 28 sec) 
Heartbeat CPU 0 instructions: 81000000 cycles: 127362195 heartbeat IPC: 0.600606 cumulative IPC: 0.584338 (Simulation time: 0 hr 54 min 2 sec) 
Heartbeat CPU 0 instructions: 82000002 cycles: 129022116 heartbeat IPC: 0.60244 cumulative IPC: 0.584582 (Simulation time: 0 hr 54 min 34 sec) 
Heartbeat CPU 0 instructions: 83000003 cycles: 130680623 heartbeat IPC: 0.602953 cumulative IPC: 0.584826 (Simulation time: 0 hr 55 min 7 sec) 
Heartbeat CPU 0 instructions: 84000000 cycles: 132339207 heartbeat IPC: 0.602922 cumulative IPC: 0.585064 (Simulation time: 0 hr 55 min 40 sec) 
Heartbeat CPU 0 instructions: 85000001 cycles: 134001498 heartbeat IPC: 0.60158 cumulative IPC: 0.585278 (Simulation time: 0 hr 56 min 11 sec) 
Heartbeat CPU 0 instructions: 86000002 cycles: 135663033 heartbeat IPC: 0.601854 cumulative IPC: 0.58549 (Simulation time: 0 hr 56 min 39 sec) 
Heartbeat CPU 0 instructions: 87000003 cycles: 137324337 heartbeat IPC: 0.601937 cumulative IPC: 0.585698 (Simulation time: 0 hr 57 min 0 sec) 
Heartbeat CPU 0 instructions: 88000000 cycles: 138989485 heartbeat IPC: 0.600545 cumulative IPC: 0.585884 (Simulation time: 1 hr 26 min 17 sec) 
Heartbeat CPU 0 instructions: 89000001 cycles: 140655082 heartbeat IPC: 0.600386 cumulative IPC: 0.586063 (Simulation time: 1 hr 26 min 45 sec) 
Heartbeat CPU 0 instructions: 90000002 cycles: 142317271 heartbeat IPC: 0.601617 cumulative IPC: 0.586252 (Simulation time: 1 hr 27 min 13 sec) 
Heartbeat CPU 0 instructions: 91000000 cycles: 143975729 heartbeat IPC: 0.602969 cumulative IPC: 0.586453 (Simulation time: 1 hr 27 min 37 sec) 
Heartbeat CPU 0 instructions: 92000000 cycles: 145634531 heartbeat IPC: 0.602845 cumulative IPC: 0.586647 (Simulation time: 1 hr 28 min 1 sec) 
Heartbeat CPU 0 instructions: 93000003 cycles: 147298000 heartbeat IPC: 0.601155 cumulative IPC: 0.586818 (Simulation time: 1 hr 28 min 24 sec) 
Heartbeat CPU 0 instructions: 94000002 cycles: 148961879 heartbeat IPC: 0.601005 cumulative IPC: 0.586983 (Simulation time: 1 hr 28 min 48 sec) 
Heartbeat CPU 0 instructions: 95000003 cycles: 150619939 heartbeat IPC: 0.603115 cumulative IPC: 0.587168 (Simulation time: 1 hr 29 min 12 sec) 
Heartbeat CPU 0 instructions: 96000000 cycles: 152282067 heartbeat IPC: 0.601637 cumulative IPC: 0.587332 (Simulation time: 1 hr 29 min 35 sec) 
Heartbeat CPU 0 instructions: 97000001 cycles: 153944637 heartbeat IPC: 0.601479 cumulative IPC: 0.587491 (Simulation time: 1 hr 29 min 58 sec) 
Heartbeat CPU 0 instructions: 98000002 cycles: 155604846 heartbeat IPC: 0.602334 cumulative IPC: 0.587655 (Simulation time: 1 hr 30 min 22 sec) 
Heartbeat CPU 0 instructions: 99000003 cycles: 157266370 heartbeat IPC: 0.601858 cumulative IPC: 0.587811 (Simulation time: 1 hr 30 min 45 sec) 
Heartbeat CPU 0 instructions: 100000000 cycles: 158927965 heartbeat IPC: 0.60183 cumulative IPC: 0.587963 (Simulation time: 1 hr 31 min 9 sec) 
Heartbeat CPU 0 instructions: 101000001 cycles: 160585118 heartbeat IPC: 0.603445 cumulative IPC: 0.588129 (Simulation time: 1 hr 31 min 31 sec) 
Heartbeat CPU 0 instructions: 102000002 cycles: 162248845 heartbeat IPC: 0.601061 cumulative IPC: 0.588267 (Simulation time: 1 hr 31 min 53 sec) 
Heartbeat CPU 0 instructions: 103000000 cycles: 163911232 heartbeat IPC: 0.601543 cumulative IPC: 0.588407 (Simulation time: 1 hr 32 min 13 sec) 
Heartbeat CPU 0 instructions: 104000000 cycles: 165572624 heartbeat IPC: 0.601905 cumulative IPC: 0.588547 (Simulation time: 1 hr 32 min 32 sec) 
Heartbeat CPU 0 instructions: 105000003 cycles: 167430026 heartbeat IPC: 0.538388 cumulative IPC: 0.58797 (Simulation time: 1 hr 32 min 52 sec) 
Heartbeat CPU 0 instructions: 106000003 cycles: 171264412 heartbeat IPC: 0.260798 cumulative IPC: 0.580386 (Simulation time: 1 hr 33 min 20 sec) 
Heartbeat CPU 0 instructions: 107000000 cycles: 173006898 heartbeat IPC: 0.573891 cumulative IPC: 0.580318 (Simulation time: 1 hr 33 min 35 sec) 
Heartbeat CPU 0 instructions: 108000000 cycles: 174735242 heartbeat IPC: 0.578589 cumulative IPC: 0.580301 (Simulation time: 1 hr 33 min 51 sec) 
Heartbeat CPU 0 instructions: 109000001 cycles: 176458753 heartbeat IPC: 0.580212 cumulative IPC: 0.5803 (Simulation time: 1 hr 34 min 7 sec) 
Heartbeat CPU 0 instructions: 110000001 cycles: 178214652 heartbeat IPC: 0.569509 cumulative IPC: 0.58019 (Simulation time: 1 hr 34 min 21 sec) 
Finished CPU 0 instructions: 100000003 cycles: 172357420 cummulative IPC: 0.58019 (Simulation time: 1 hr 34 min 21 sec) 

ChampSim completed all CPUs

Region of Interest Statistics

CPU 0 cummulative IPC: 0.58019 instructions: 100000003 cycles: 172357420
LLC TOTAL     ACCESS:    3300884  HIT:      75734  MISS:    3225150
LLC LOAD      ACCESS:     970586  HIT:        240  MISS:     970346
LLC RFO       ACCESS:     136847  HIT:      12177  MISS:     124670
LLC PREFETCH  ACCESS:    1335362  HIT:      10004  MISS:    1325358
LLC WRITEBACK ACCESS:     858089  HIT:      53313  MISS:     804776
Insertion Distribution: 
	LOAD 0 0 0 348002 670062 
	RFO 0 0 0 40242 225439 
	PREF 0 0 0 86690 1464741 
	WRITEBACK 0 0 0 0 948818 
Total Prefetch Downgrades: 0
