
*** ChampSim Multicore Out-of-Order Simulator ***

Warmup Instructions: 10000000
Simulation Instructions: 100000000
Configuration: 2
Number of CPUs: 1
LLC sets: 2048
LLC ways: 16
Off-chip DRAM Channels: 1 Width: 64-bit Data Rate: 1600 MT/s

CPU 0 runs /datasets/cs240c-wi22-a00-public/data/Assignment2-gz/soplex_66B.trace.gz
CPU 0 L1D next line prefetcher
CPU 0 L2C IP-based stride prefetcher
Initialize SRRIP state
Heartbeat CPU 0 instructions: 1000003 cycles: 415046 heartbeat IPC: 2.40938 cumulative IPC: 2.40938 (Simulation time: 0 hr 0 min 28 sec) 
Heartbeat CPU 0 instructions: 2000003 cycles: 837428 heartbeat IPC: 2.36753 cumulative IPC: 2.38827 (Simulation time: 0 hr 0 min 59 sec) 
Heartbeat CPU 0 instructions: 3000003 cycles: 1242496 heartbeat IPC: 2.46872 cumulative IPC: 2.4145 (Simulation time: 0 hr 1 min 30 sec) 
Heartbeat CPU 0 instructions: 4000000 cycles: 1626607 heartbeat IPC: 2.60341 cumulative IPC: 2.45911 (Simulation time: 0 hr 1 min 56 sec) 
Heartbeat CPU 0 instructions: 5000000 cycles: 2040582 heartbeat IPC: 2.4156 cumulative IPC: 2.45028 (Simulation time: 0 hr 2 min 23 sec) 
Heartbeat CPU 0 instructions: 6000000 cycles: 2513871 heartbeat IPC: 2.11287 cumulative IPC: 2.38676 (Simulation time: 0 hr 2 min 51 sec) 
Heartbeat CPU 0 instructions: 7000002 cycles: 2886108 heartbeat IPC: 2.68647 cumulative IPC: 2.42541 (Simulation time: 0 hr 3 min 24 sec) 
Heartbeat CPU 0 instructions: 8000000 cycles: 3311654 heartbeat IPC: 2.34992 cumulative IPC: 2.41571 (Simulation time: 0 hr 3 min 55 sec) 
Heartbeat CPU 0 instructions: 9000001 cycles: 3750208 heartbeat IPC: 2.28022 cumulative IPC: 2.39987 (Simulation time: 0 hr 4 min 24 sec) 
Heartbeat CPU 0 instructions: 10000002 cycles: 4162289 heartbeat IPC: 2.42671 cumulative IPC: 2.40252 (Simulation time: 0 hr 4 min 53 sec) 

Warmup complete CPU 0 instructions: 10000002 cycles: 4162289 (Simulation time: 0 hr 4 min 53 sec) 

Heartbeat CPU 0 instructions: 11000001 cycles: 7187292 heartbeat IPC: 0.330578 cumulative IPC: 0.330578 (Simulation time: 0 hr 5 min 31 sec) 
Heartbeat CPU 0 instructions: 12000000 cycles: 8498407 heartbeat IPC: 0.762709 cumulative IPC: 0.461242 (Simulation time: 0 hr 5 min 55 sec) 
Heartbeat CPU 0 instructions: 13000001 cycles: 11047585 heartbeat IPC: 0.392284 cumulative IPC: 0.435711 (Simulation time: 0 hr 6 min 28 sec) 
Heartbeat CPU 0 instructions: 14000002 cycles: 13520944 heartbeat IPC: 0.404309 cumulative IPC: 0.427412 (Simulation time: 0 hr 7 min 1 sec) 
Heartbeat CPU 0 instructions: 15000002 cycles: 16009731 heartbeat IPC: 0.401802 cumulative IPC: 0.422032 (Simulation time: 0 hr 7 min 36 sec) 
Heartbeat CPU 0 instructions: 16000000 cycles: 18886161 heartbeat IPC: 0.347652 cumulative IPC: 0.407501 (Simulation time: 0 hr 8 min 16 sec) 
Heartbeat CPU 0 instructions: 17000001 cycles: 21073985 heartbeat IPC: 0.457076 cumulative IPC: 0.413915 (Simulation time: 0 hr 8 min 54 sec) 
Heartbeat CPU 0 instructions: 18000000 cycles: 22994732 heartbeat IPC: 0.52063 cumulative IPC: 0.424799 (Simulation time: 0 hr 9 min 28 sec) 
Heartbeat CPU 0 instructions: 19000002 cycles: 26305117 heartbeat IPC: 0.30208 cumulative IPC: 0.406452 (Simulation time: 0 hr 10 min 6 sec) 
Heartbeat CPU 0 instructions: 20000000 cycles: 27639243 heartbeat IPC: 0.749553 cumulative IPC: 0.42595 (Simulation time: 0 hr 10 min 31 sec) 
Heartbeat CPU 0 instructions: 21000000 cycles: 29830440 heartbeat IPC: 0.456372 cumulative IPC: 0.428547 (Simulation time: 0 hr 11 min 5 sec) 
Heartbeat CPU 0 instructions: 22000000 cycles: 32529424 heartbeat IPC: 0.37051 cumulative IPC: 0.423025 (Simulation time: 0 hr 11 min 40 sec) 
Heartbeat CPU 0 instructions: 23000000 cycles: 35010167 heartbeat IPC: 0.403105 cumulative IPC: 0.421423 (Simulation time: 0 hr 12 min 10 sec) 
Heartbeat CPU 0 instructions: 24000000 cycles: 37610938 heartbeat IPC: 0.384501 cumulative IPC: 0.418552 (Simulation time: 0 hr 12 min 41 sec) 
Heartbeat CPU 0 instructions: 25000003 cycles: 39959011 heartbeat IPC: 0.425882 cumulative IPC: 0.419033 (Simulation time: 0 hr 13 min 23 sec) 
Heartbeat CPU 0 instructions: 26000001 cycles: 42090697 heartbeat IPC: 0.469111 cumulative IPC: 0.421847 (Simulation time: 0 hr 14 min 1 sec) 
Heartbeat CPU 0 instructions: 27000002 cycles: 45422805 heartbeat IPC: 0.300111 cumulative IPC: 0.412016 (Simulation time: 0 hr 14 min 45 sec) 
Heartbeat CPU 0 instructions: 28000000 cycles: 46758919 heartbeat IPC: 0.748438 cumulative IPC: 0.422569 (Simulation time: 0 hr 15 min 15 sec) 
Heartbeat CPU 0 instructions: 29000002 cycles: 48580228 heartbeat IPC: 0.549057 cumulative IPC: 0.427755 (Simulation time: 0 hr 15 min 45 sec) 
Heartbeat CPU 0 instructions: 30000000 cycles: 51463554 heartbeat IPC: 0.346821 cumulative IPC: 0.422822 (Simulation time: 0 hr 16 min 21 sec) 
Heartbeat CPU 0 instructions: 31000001 cycles: 53985736 heartbeat IPC: 0.396482 cumulative IPC: 0.421488 (Simulation time: 0 hr 16 min 49 sec) 
Heartbeat CPU 0 instructions: 32000000 cycles: 56482825 heartbeat IPC: 0.400466 cumulative IPC: 0.420485 (Simulation time: 0 hr 17 min 18 sec) 
Heartbeat CPU 0 instructions: 33000001 cycles: 59741478 heartbeat IPC: 0.306876 cumulative IPC: 0.413824 (Simulation time: 0 hr 18 min 2 sec) 
Heartbeat CPU 0 instructions: 34000003 cycles: 61678608 heartbeat IPC: 0.516229 cumulative IPC: 0.417273 (Simulation time: 0 hr 18 min 44 sec) 
Heartbeat CPU 0 instructions: 35000003 cycles: 64628593 heartbeat IPC: 0.338985 cumulative IPC: 0.413453 (Simulation time: 0 hr 19 min 27 sec) 
Heartbeat CPU 0 instructions: 36000000 cycles: 65961378 heartbeat IPC: 0.750306 cumulative IPC: 0.420718 (Simulation time: 0 hr 19 min 56 sec) 
Heartbeat CPU 0 instructions: 37000000 cycles: 68530456 heartbeat IPC: 0.389245 cumulative IPC: 0.419462 (Simulation time: 0 hr 20 min 34 sec) 
Heartbeat CPU 0 instructions: 38000001 cycles: 70987683 heartbeat IPC: 0.406963 cumulative IPC: 0.419002 (Simulation time: 0 hr 21 min 11 sec) 
Heartbeat CPU 0 instructions: 39000003 cycles: 73517601 heartbeat IPC: 0.395271 cumulative IPC: 0.418137 (Simulation time: 0 hr 21 min 46 sec) 
Heartbeat CPU 0 instructions: 40000000 cycles: 76354533 heartbeat IPC: 0.352492 cumulative IPC: 0.415557 (Simulation time: 0 hr 22 min 28 sec) 
Heartbeat CPU 0 instructions: 41000001 cycles: 78474032 heartbeat IPC: 0.47181 cumulative IPC: 0.417162 (Simulation time: 0 hr 23 min 6 sec) 
Heartbeat CPU 0 instructions: 42000003 cycles: 80394401 heartbeat IPC: 0.520734 cumulative IPC: 0.419771 (Simulation time: 0 hr 23 min 41 sec) 
Heartbeat CPU 0 instructions: 43000000 cycles: 83701016 heartbeat IPC: 0.302423 cumulative IPC: 0.414892 (Simulation time: 0 hr 24 min 28 sec) 
Heartbeat CPU 0 instructions: 44000000 cycles: 85036328 heartbeat IPC: 0.748889 cumulative IPC: 0.420407 (Simulation time: 0 hr 24 min 54 sec) 
Heartbeat CPU 0 instructions: 45000003 cycles: 87221207 heartbeat IPC: 0.457693 cumulative IPC: 0.421388 (Simulation time: 0 hr 25 min 26 sec) 
Heartbeat CPU 0 instructions: 46000003 cycles: 89933633 heartbeat IPC: 0.368674 cumulative IPC: 0.419721 (Simulation time: 0 hr 26 min 4 sec) 
Heartbeat CPU 0 instructions: 47000001 cycles: 92385990 heartbeat IPC: 0.40777 cumulative IPC: 0.419388 (Simulation time: 0 hr 26 min 35 sec) 
Heartbeat CPU 0 instructions: 48000000 cycles: 94913058 heartbeat IPC: 0.395715 cumulative IPC: 0.418729 (Simulation time: 0 hr 27 min 8 sec) 
Heartbeat CPU 0 instructions: 49000000 cycles: 98432143 heartbeat IPC: 0.284165 cumulative IPC: 0.413706 (Simulation time: 0 hr 28 min 5 sec) 
Heartbeat CPU 0 instructions: 50000003 cycles: 104363407 heartbeat IPC: 0.168599 cumulative IPC: 0.399197 (Simulation time: 0 hr 29 min 0 sec) 
Heartbeat CPU 0 instructions: 51000002 cycles: 106849021 heartbeat IPC: 0.402315 cumulative IPC: 0.399273 (Simulation time: 0 hr 29 min 54 sec) 
Heartbeat CPU 0 instructions: 52000000 cycles: 110672448 heartbeat IPC: 0.261545 cumulative IPC: 0.394329 (Simulation time: 0 hr 30 min 42 sec) 
Heartbeat CPU 0 instructions: 53000003 cycles: 113361866 heartbeat IPC: 0.371829 cumulative IPC: 0.393774 (Simulation time: 0 hr 31 min 27 sec) 
Heartbeat CPU 0 instructions: 54000000 cycles: 115840403 heartbeat IPC: 0.403463 cumulative IPC: 0.393989 (Simulation time: 0 hr 32 min 15 sec) 
Heartbeat CPU 0 instructions: 55000002 cycles: 119377708 heartbeat IPC: 0.282702 cumulative IPC: 0.390573 (Simulation time: 0 hr 32 min 59 sec) 
Heartbeat CPU 0 instructions: 56000000 cycles: 122680856 heartbeat IPC: 0.302741 cumulative IPC: 0.388125 (Simulation time: 0 hr 33 min 41 sec) 
Heartbeat CPU 0 instructions: 57000003 cycles: 125190698 heartbeat IPC: 0.398433 cumulative IPC: 0.388339 (Simulation time: 0 hr 34 min 27 sec) 
Heartbeat CPU 0 instructions: 58000000 cycles: 127345934 heartbeat IPC: 0.463985 cumulative IPC: 0.389662 (Simulation time: 0 hr 35 min 8 sec) 
Heartbeat CPU 0 instructions: 59000002 cycles: 128933458 heartbeat IPC: 0.629913 cumulative IPC: 0.392719 (Simulation time: 0 hr 35 min 46 sec) 
Heartbeat CPU 0 instructions: 60000000 cycles: 130161862 heartbeat IPC: 0.814063 cumulative IPC: 0.396827 (Simulation time: 0 hr 36 min 18 sec) 
Heartbeat CPU 0 instructions: 61000002 cycles: 133100710 heartbeat IPC: 0.34027 cumulative IPC: 0.395538 (Simulation time: 0 hr 37 min 0 sec) 
Heartbeat CPU 0 instructions: 62000000 cycles: 135680849 heartbeat IPC: 0.387575 cumulative IPC: 0.395381 (Simulation time: 0 hr 37 min 41 sec) 
Heartbeat CPU 0 instructions: 63000002 cycles: 137616547 heartbeat IPC: 0.516611 cumulative IPC: 0.39714 (Simulation time: 0 hr 38 min 17 sec) 
Heartbeat CPU 0 instructions: 64000000 cycles: 140045963 heartbeat IPC: 0.411621 cumulative IPC: 0.397399 (Simulation time: 0 hr 38 min 51 sec) 
Heartbeat CPU 0 instructions: 65000000 cycles: 143488287 heartbeat IPC: 0.290501 cumulative IPC: 0.394758 (Simulation time: 0 hr 39 min 34 sec) 
Heartbeat CPU 0 instructions: 66000001 cycles: 144767770 heartbeat IPC: 0.781566 cumulative IPC: 0.398277 (Simulation time: 0 hr 39 min 57 sec) 
Heartbeat CPU 0 instructions: 67000000 cycles: 146073502 heartbeat IPC: 0.765853 cumulative IPC: 0.40166 (Simulation time: 0 hr 40 min 22 sec) 
Heartbeat CPU 0 instructions: 68000000 cycles: 149320129 heartbeat IPC: 0.308012 cumulative IPC: 0.399565 (Simulation time: 0 hr 40 min 58 sec) 
Heartbeat CPU 0 instructions: 69000000 cycles: 151907137 heartbeat IPC: 0.386547 cumulative IPC: 0.399337 (Simulation time: 0 hr 41 min 27 sec) 
Heartbeat CPU 0 instructions: 70000003 cycles: 154335481 heartbeat IPC: 0.411804 cumulative IPC: 0.399539 (Simulation time: 0 hr 41 min 55 sec) 
Heartbeat CPU 0 instructions: 71000000 cycles: 156745410 heartbeat IPC: 0.414949 cumulative IPC: 0.399782 (Simulation time: 0 hr 42 min 34 sec) 
Heartbeat CPU 0 instructions: 72000000 cycles: 159368630 heartbeat IPC: 0.381211 cumulative IPC: 0.399468 (Simulation time: 0 hr 43 min 11 sec) 
Heartbeat CPU 0 instructions: 73000001 cycles: 162133587 heartbeat IPC: 0.36167 cumulative IPC: 0.398807 (Simulation time: 0 hr 43 min 53 sec) 
Heartbeat CPU 0 instructions: 74000000 cycles: 164107332 heartbeat IPC: 0.506651 cumulative IPC: 0.400137 (Simulation time: 0 hr 44 min 20 sec) 
Heartbeat CPU 0 instructions: 75000002 cycles: 165432080 heartbeat IPC: 0.754862 cumulative IPC: 0.403051 (Simulation time: 0 hr 44 min 45 sec) 
Heartbeat CPU 0 instructions: 76000000 cycles: 168569607 heartbeat IPC: 0.318722 cumulative IPC: 0.401442 (Simulation time: 0 hr 45 min 26 sec) 
Heartbeat CPU 0 instructions: 77000000 cycles: 171029036 heartbeat IPC: 0.406598 cumulative IPC: 0.401518 (Simulation time: 0 hr 45 min 58 sec) 
Heartbeat CPU 0 instructions: 78000003 cycles: 173455260 heartbeat IPC: 0.412164 cumulative IPC: 0.401671 (Simulation time: 0 hr 46 min 30 sec) 
Heartbeat CPU 0 instructions: 79000001 cycles: 176530761 heartbeat IPC: 0.32515 cumulative IPC: 0.400305 (Simulation time: 0 hr 47 min 12 sec) 
Heartbeat CPU 0 instructions: 80000000 cycles: 179058503 heartbeat IPC: 0.39561 cumulative IPC: 0.400237 (Simulation time: 0 hr 47 min 54 sec) 
Heartbeat CPU 0 instructions: 81000003 cycles: 182002483 heartbeat IPC: 0.339677 cumulative IPC: 0.399235 (Simulation time: 0 hr 48 min 37 sec) 
Heartbeat CPU 0 instructions: 82000000 cycles: 183736815 heartbeat IPC: 0.576589 cumulative IPC: 0.400948 (Simulation time: 0 hr 49 min 5 sec) 
Heartbeat CPU 0 instructions: 83000001 cycles: 185059308 heartbeat IPC: 0.756148 cumulative IPC: 0.403545 (Simulation time: 0 hr 49 min 30 sec) 
Heartbeat CPU 0 instructions: 84000000 cycles: 188224190 heartbeat IPC: 0.315967 cumulative IPC: 0.402039 (Simulation time: 0 hr 50 min 8 sec) 
Heartbeat CPU 0 instructions: 85000000 cycles: 190614527 heartbeat IPC: 0.418351 cumulative IPC: 0.402248 (Simulation time: 0 hr 50 min 38 sec) 
Heartbeat CPU 0 instructions: 86000000 cycles: 193112504 heartbeat IPC: 0.400324 cumulative IPC: 0.402222 (Simulation time: 0 hr 51 min 7 sec) 
Heartbeat CPU 0 instructions: 87000000 cycles: 196126583 heartbeat IPC: 0.331776 cumulative IPC: 0.401116 (Simulation time: 0 hr 51 min 52 sec) 
Heartbeat CPU 0 instructions: 88000000 cycles: 198345746 heartbeat IPC: 0.45062 cumulative IPC: 0.401682 (Simulation time: 0 hr 52 min 24 sec) 
Heartbeat CPU 0 instructions: 89000001 cycles: 201631017 heartbeat IPC: 0.304389 cumulative IPC: 0.400063 (Simulation time: 0 hr 53 min 2 sec) 
Heartbeat CPU 0 instructions: 90000002 cycles: 202967894 heartbeat IPC: 0.748013 cumulative IPC: 0.402403 (Simulation time: 0 hr 53 min 28 sec) 
Heartbeat CPU 0 instructions: 91000000 cycles: 204366018 heartbeat IPC: 0.715243 cumulative IPC: 0.404588 (Simulation time: 0 hr 53 min 54 sec) 
Heartbeat CPU 0 instructions: 92000000 cycles: 207488709 heartbeat IPC: 0.320237 cumulative IPC: 0.403292 (Simulation time: 0 hr 54 min 29 sec) 
Heartbeat CPU 0 instructions: 93000000 cycles: 210053798 heartbeat IPC: 0.38985 cumulative IPC: 0.403125 (Simulation time: 0 hr 54 min 58 sec) 
Heartbeat CPU 0 instructions: 94000001 cycles: 212450380 heartbeat IPC: 0.417261 cumulative IPC: 0.403288 (Simulation time: 0 hr 55 min 25 sec) 
Heartbeat CPU 0 instructions: 95000003 cycles: 215615835 heartbeat IPC: 0.315911 cumulative IPC: 0.40198 (Simulation time: 0 hr 56 min 3 sec) 
Heartbeat CPU 0 instructions: 96000000 cycles: 217514265 heartbeat IPC: 0.526749 cumulative IPC: 0.40309 (Simulation time: 0 hr 56 min 30 sec) 
Heartbeat CPU 0 instructions: 97000003 cycles: 220678487 heartbeat IPC: 0.316034 cumulative IPC: 0.401818 (Simulation time: 0 hr 56 min 55 sec) 
Heartbeat CPU 0 instructions: 98000003 cycles: 222013017 heartbeat IPC: 0.749327 cumulative IPC: 0.403946 (Simulation time: 0 hr 57 min 5 sec) 
Heartbeat CPU 0 instructions: 99000000 cycles: 224355452 heartbeat IPC: 0.426905 cumulative IPC: 0.404191 (Simulation time: 1 hr 26 min 11 sec) 
Heartbeat CPU 0 instructions: 100000000 cycles: 226982894 heartbeat IPC: 0.380598 cumulative IPC: 0.403912 (Simulation time: 1 hr 26 min 41 sec) 
Heartbeat CPU 0 instructions: 101000001 cycles: 229435682 heartbeat IPC: 0.4077 cumulative IPC: 0.403954 (Simulation time: 1 hr 27 min 4 sec) 
Heartbeat CPU 0 instructions: 102000002 cycles: 232044528 heartbeat IPC: 0.383312 cumulative IPC: 0.403717 (Simulation time: 1 hr 27 min 26 sec) 
Heartbeat CPU 0 instructions: 103000002 cycles: 235084160 heartbeat IPC: 0.328987 cumulative IPC: 0.402734 (Simulation time: 1 hr 27 min 53 sec) 
Heartbeat CPU 0 instructions: 104000000 cycles: 237242241 heartbeat IPC: 0.463374 cumulative IPC: 0.403295 (Simulation time: 1 hr 28 min 17 sec) 
Heartbeat CPU 0 instructions: 105000000 cycles: 239673608 heartbeat IPC: 0.411291 cumulative IPC: 0.403378 (Simulation time: 1 hr 28 min 37 sec) 
Heartbeat CPU 0 instructions: 106000001 cycles: 241007053 heartbeat IPC: 0.749938 cumulative IPC: 0.405329 (Simulation time: 1 hr 28 min 53 sec) 
Heartbeat CPU 0 instructions: 107000001 cycles: 243969073 heartbeat IPC: 0.337607 cumulative IPC: 0.404492 (Simulation time: 1 hr 29 min 16 sec) 
Heartbeat CPU 0 instructions: 108000000 cycles: 246226958 heartbeat IPC: 0.442892 cumulative IPC: 0.40485 (Simulation time: 1 hr 29 min 32 sec) 
Heartbeat CPU 0 instructions: 109000003 cycles: 248701085 heartbeat IPC: 0.404184 cumulative IPC: 0.404844 (Simulation time: 1 hr 29 min 51 sec) 
Heartbeat CPU 0 instructions: 110000001 cycles: 251645096 heartbeat IPC: 0.339672 cumulative IPC: 0.404068 (Simulation time: 1 hr 30 min 15 sec) 
Finished CPU 0 instructions: 100000003 cycles: 247482808 cummulative IPC: 0.404068 (Simulation time: 1 hr 30 min 15 sec) 

ChampSim completed all CPUs

Region of Interest Statistics

CPU 0 cummulative IPC: 0.404068 instructions: 100000003 cycles: 247482808
LLC TOTAL     ACCESS:    6594547  HIT:    3258410  MISS:    3336137
LLC LOAD      ACCESS:    1693572  HIT:     779719  MISS:     913853
LLC RFO       ACCESS:     658491  HIT:     253121  MISS:     405370
LLC PREFETCH  ACCESS:    2681827  HIT:    1090991  MISS:    1590836
LLC WRITEBACK ACCESS:    1560657  HIT:    1134579  MISS:     426078
Insertion Distribution: 
	LOAD 184719 0 0 137114 667442 
	RFO 154119 0 0 98165 211389 
	PREF 0 35443 0 242590 1506299 
	WRITEBACK 0 0 0 0 460499 
Total Prefetch Downgrades: 65261
