
*** ChampSim Multicore Out-of-Order Simulator ***

Warmup Instructions: 10000000
Simulation Instructions: 100000000
Configuration: 2
Number of CPUs: 1
LLC sets: 2048
LLC ways: 16
Off-chip DRAM Channels: 1 Width: 64-bit Data Rate: 1600 MT/s

CPU 0 runs /datasets/cs240c-wi22-a00-public/data/Assignment2-gz/wrf_1650B.trace.gz
CPU 0 L1D next line prefetcher
CPU 0 L2C IP-based stride prefetcher
Initialize SRRIP state
Heartbeat CPU 0 instructions: 1000000 cycles: 514299 heartbeat IPC: 1.94439 cumulative IPC: 1.94439 (Simulation time: 0 hr 0 min 33 sec) 
Heartbeat CPU 0 instructions: 2000000 cycles: 1028473 heartbeat IPC: 1.94487 cumulative IPC: 1.94463 (Simulation time: 0 hr 1 min 8 sec) 
Heartbeat CPU 0 instructions: 3000001 cycles: 1546184 heartbeat IPC: 1.93158 cumulative IPC: 1.94026 (Simulation time: 0 hr 1 min 38 sec) 
Heartbeat CPU 0 instructions: 4000000 cycles: 2063940 heartbeat IPC: 1.93141 cumulative IPC: 1.93804 (Simulation time: 0 hr 2 min 8 sec) 
Heartbeat CPU 0 instructions: 5000001 cycles: 2581687 heartbeat IPC: 1.93145 cumulative IPC: 1.93672 (Simulation time: 0 hr 2 min 36 sec) 
Heartbeat CPU 0 instructions: 6000003 cycles: 3099505 heartbeat IPC: 1.93118 cumulative IPC: 1.93579 (Simulation time: 0 hr 3 min 6 sec) 
Heartbeat CPU 0 instructions: 7000000 cycles: 3617214 heartbeat IPC: 1.93158 cumulative IPC: 1.93519 (Simulation time: 0 hr 3 min 39 sec) 
Heartbeat CPU 0 instructions: 8000000 cycles: 4135023 heartbeat IPC: 1.93121 cumulative IPC: 1.93469 (Simulation time: 0 hr 4 min 10 sec) 
Heartbeat CPU 0 instructions: 9000001 cycles: 4649336 heartbeat IPC: 1.94434 cumulative IPC: 1.93576 (Simulation time: 0 hr 4 min 41 sec) 
Heartbeat CPU 0 instructions: 10000001 cycles: 5163453 heartbeat IPC: 1.94508 cumulative IPC: 1.93669 (Simulation time: 0 hr 5 min 14 sec) 

Warmup complete CPU 0 instructions: 10000001 cycles: 5163453 (Simulation time: 0 hr 5 min 14 sec) 

Heartbeat CPU 0 instructions: 11000000 cycles: 6646675 heartbeat IPC: 0.674207 cumulative IPC: 0.674207 (Simulation time: 0 hr 5 min 56 sec) 
Heartbeat CPU 0 instructions: 12000000 cycles: 8135729 heartbeat IPC: 0.671567 cumulative IPC: 0.672885 (Simulation time: 0 hr 6 min 35 sec) 
Heartbeat CPU 0 instructions: 13000002 cycles: 9629724 heartbeat IPC: 0.669348 cumulative IPC: 0.671701 (Simulation time: 0 hr 7 min 16 sec) 
Heartbeat CPU 0 instructions: 14000002 cycles: 11124015 heartbeat IPC: 0.669214 cumulative IPC: 0.671078 (Simulation time: 0 hr 8 min 0 sec) 
Heartbeat CPU 0 instructions: 15000001 cycles: 12618833 heartbeat IPC: 0.668977 cumulative IPC: 0.670657 (Simulation time: 0 hr 8 min 44 sec) 
Heartbeat CPU 0 instructions: 16000000 cycles: 14113265 heartbeat IPC: 0.66915 cumulative IPC: 0.670405 (Simulation time: 0 hr 9 min 26 sec) 
Heartbeat CPU 0 instructions: 17000000 cycles: 15607540 heartbeat IPC: 0.669221 cumulative IPC: 0.670236 (Simulation time: 0 hr 10 min 8 sec) 
Heartbeat CPU 0 instructions: 18000001 cycles: 17095469 heartbeat IPC: 0.672076 cumulative IPC: 0.670465 (Simulation time: 0 hr 10 min 51 sec) 
Heartbeat CPU 0 instructions: 19000003 cycles: 18577611 heartbeat IPC: 0.674701 cumulative IPC: 0.670933 (Simulation time: 0 hr 11 min 39 sec) 
Heartbeat CPU 0 instructions: 20000000 cycles: 20060902 heartbeat IPC: 0.674175 cumulative IPC: 0.671256 (Simulation time: 0 hr 12 min 24 sec) 
Heartbeat CPU 0 instructions: 21000000 cycles: 21544828 heartbeat IPC: 0.673888 cumulative IPC: 0.671494 (Simulation time: 0 hr 13 min 25 sec) 
Heartbeat CPU 0 instructions: 22000000 cycles: 23038726 heartbeat IPC: 0.66939 cumulative IPC: 0.671318 (Simulation time: 0 hr 14 min 33 sec) 
Heartbeat CPU 0 instructions: 23000003 cycles: 24534146 heartbeat IPC: 0.66871 cumulative IPC: 0.671117 (Simulation time: 0 hr 15 min 32 sec) 
Heartbeat CPU 0 instructions: 24000000 cycles: 26027752 heartbeat IPC: 0.669519 cumulative IPC: 0.671003 (Simulation time: 0 hr 16 min 32 sec) 
Heartbeat CPU 0 instructions: 25000000 cycles: 27522673 heartbeat IPC: 0.668932 cumulative IPC: 0.670864 (Simulation time: 0 hr 17 min 29 sec) 
Heartbeat CPU 0 instructions: 26000001 cycles: 29017430 heartbeat IPC: 0.669006 cumulative IPC: 0.670748 (Simulation time: 0 hr 18 min 12 sec) 
Heartbeat CPU 0 instructions: 27000003 cycles: 30510702 heartbeat IPC: 0.669672 cumulative IPC: 0.670684 (Simulation time: 0 hr 19 min 2 sec) 
Heartbeat CPU 0 instructions: 28000000 cycles: 31993187 heartbeat IPC: 0.674541 cumulative IPC: 0.670897 (Simulation time: 0 hr 19 min 53 sec) 
Heartbeat CPU 0 instructions: 29000001 cycles: 33476108 heartbeat IPC: 0.674345 cumulative IPC: 0.671078 (Simulation time: 0 hr 20 min 43 sec) 
Heartbeat CPU 0 instructions: 30000001 cycles: 34959463 heartbeat IPC: 0.674147 cumulative IPC: 0.671231 (Simulation time: 0 hr 21 min 33 sec) 
Heartbeat CPU 0 instructions: 31000000 cycles: 36450339 heartbeat IPC: 0.670746 cumulative IPC: 0.671208 (Simulation time: 0 hr 22 min 18 sec) 
Heartbeat CPU 0 instructions: 32000000 cycles: 37944205 heartbeat IPC: 0.669404 cumulative IPC: 0.671126 (Simulation time: 0 hr 23 min 17 sec) 
Heartbeat CPU 0 instructions: 33000001 cycles: 39438165 heartbeat IPC: 0.669363 cumulative IPC: 0.671049 (Simulation time: 0 hr 24 min 26 sec) 
Heartbeat CPU 0 instructions: 34000002 cycles: 40932447 heartbeat IPC: 0.669218 cumulative IPC: 0.670972 (Simulation time: 0 hr 25 min 44 sec) 
Heartbeat CPU 0 instructions: 35000001 cycles: 42427793 heartbeat IPC: 0.668741 cumulative IPC: 0.670883 (Simulation time: 0 hr 26 min 59 sec) 
Heartbeat CPU 0 instructions: 36000000 cycles: 43922710 heartbeat IPC: 0.668933 cumulative IPC: 0.670807 (Simulation time: 0 hr 28 min 14 sec) 
Heartbeat CPU 0 instructions: 37000003 cycles: 45408870 heartbeat IPC: 0.672877 cumulative IPC: 0.670884 (Simulation time: 0 hr 29 min 25 sec) 
Heartbeat CPU 0 instructions: 38000000 cycles: 46891586 heartbeat IPC: 0.674436 cumulative IPC: 0.67101 (Simulation time: 0 hr 30 min 43 sec) 
Heartbeat CPU 0 instructions: 39000001 cycles: 48375465 heartbeat IPC: 0.67391 cumulative IPC: 0.67111 (Simulation time: 0 hr 31 min 51 sec) 
Heartbeat CPU 0 instructions: 40000000 cycles: 49861326 heartbeat IPC: 0.67301 cumulative IPC: 0.671173 (Simulation time: 0 hr 33 min 2 sec) 
Heartbeat CPU 0 instructions: 41000000 cycles: 51355412 heartbeat IPC: 0.669306 cumulative IPC: 0.671112 (Simulation time: 0 hr 34 min 12 sec) 
Heartbeat CPU 0 instructions: 42000001 cycles: 52851232 heartbeat IPC: 0.66853 cumulative IPC: 0.671031 (Simulation time: 0 hr 35 min 24 sec) 
Heartbeat CPU 0 instructions: 43000001 cycles: 54345355 heartbeat IPC: 0.669289 cumulative IPC: 0.670979 (Simulation time: 0 hr 36 min 33 sec) 
Heartbeat CPU 0 instructions: 44000000 cycles: 55840997 heartbeat IPC: 0.668609 cumulative IPC: 0.670909 (Simulation time: 0 hr 37 min 49 sec) 
Heartbeat CPU 0 instructions: 45000000 cycles: 57335388 heartbeat IPC: 0.669169 cumulative IPC: 0.670859 (Simulation time: 0 hr 39 min 1 sec) 
Heartbeat CPU 0 instructions: 46000002 cycles: 59610451 heartbeat IPC: 0.439549 cumulative IPC: 0.661193 (Simulation time: 0 hr 40 min 17 sec) 
Heartbeat CPU 0 instructions: 47000002 cycles: 61173661 heartbeat IPC: 0.639709 cumulative IPC: 0.660594 (Simulation time: 0 hr 41 min 15 sec) 
Heartbeat CPU 0 instructions: 48000000 cycles: 62831618 heartbeat IPC: 0.603151 cumulative IPC: 0.658942 (Simulation time: 0 hr 42 min 14 sec) 
Heartbeat CPU 0 instructions: 49000001 cycles: 64489241 heartbeat IPC: 0.603274 cumulative IPC: 0.657387 (Simulation time: 0 hr 43 min 9 sec) 
Heartbeat CPU 0 instructions: 50000000 cycles: 66142407 heartbeat IPC: 0.604899 cumulative IPC: 0.655964 (Simulation time: 0 hr 43 min 58 sec) 
Heartbeat CPU 0 instructions: 51000000 cycles: 67923998 heartbeat IPC: 0.561296 cumulative IPC: 0.653277 (Simulation time: 0 hr 44 min 47 sec) 
Heartbeat CPU 0 instructions: 52000000 cycles: 69660053 heartbeat IPC: 0.576019 cumulative IPC: 0.651197 (Simulation time: 0 hr 45 min 28 sec) 
Heartbeat CPU 0 instructions: 53000002 cycles: 70692809 heartbeat IPC: 0.968285 cumulative IPC: 0.656194 (Simulation time: 0 hr 46 min 6 sec) 
Heartbeat CPU 0 instructions: 54000001 cycles: 71597848 heartbeat IPC: 1.10492 cumulative IPC: 0.662308 (Simulation time: 0 hr 46 min 42 sec) 
Heartbeat CPU 0 instructions: 55000000 cycles: 72501690 heartbeat IPC: 1.10639 cumulative IPC: 0.668268 (Simulation time: 0 hr 47 min 23 sec) 
Heartbeat CPU 0 instructions: 56000000 cycles: 73383583 heartbeat IPC: 1.13392 cumulative IPC: 0.674288 (Simulation time: 0 hr 48 min 0 sec) 
Heartbeat CPU 0 instructions: 57000001 cycles: 74269906 heartbeat IPC: 1.12826 cumulative IPC: 0.68011 (Simulation time: 0 hr 48 min 38 sec) 
Heartbeat CPU 0 instructions: 58000002 cycles: 75153112 heartbeat IPC: 1.13224 cumulative IPC: 0.685816 (Simulation time: 0 hr 49 min 16 sec) 
Heartbeat CPU 0 instructions: 59000003 cycles: 76038131 heartbeat IPC: 1.12992 cumulative IPC: 0.691361 (Simulation time: 0 hr 49 min 53 sec) 
Heartbeat CPU 0 instructions: 60000000 cycles: 76927228 heartbeat IPC: 1.12473 cumulative IPC: 0.69673 (Simulation time: 0 hr 50 min 29 sec) 
Heartbeat CPU 0 instructions: 61000003 cycles: 78219058 heartbeat IPC: 0.774098 cumulative IPC: 0.698098 (Simulation time: 0 hr 51 min 8 sec) 
Heartbeat CPU 0 instructions: 62000002 cycles: 79707276 heartbeat IPC: 0.671944 cumulative IPC: 0.697576 (Simulation time: 0 hr 51 min 44 sec) 
Heartbeat CPU 0 instructions: 63000002 cycles: 81193553 heartbeat IPC: 0.672822 cumulative IPC: 0.697092 (Simulation time: 0 hr 52 min 22 sec) 
Heartbeat CPU 0 instructions: 64000000 cycles: 82679388 heartbeat IPC: 0.673021 cumulative IPC: 0.696631 (Simulation time: 0 hr 53 min 8 sec) 
Heartbeat CPU 0 instructions: 65000001 cycles: 84167468 heartbeat IPC: 0.672008 cumulative IPC: 0.696167 (Simulation time: 0 hr 53 min 45 sec) 
Heartbeat CPU 0 instructions: 66000000 cycles: 85653160 heartbeat IPC: 0.673086 cumulative IPC: 0.695741 (Simulation time: 0 hr 54 min 21 sec) 
Heartbeat CPU 0 instructions: 67000001 cycles: 87143060 heartbeat IPC: 0.671187 cumulative IPC: 0.695295 (Simulation time: 0 hr 54 min 53 sec) 
Heartbeat CPU 0 instructions: 68000000 cycles: 88628892 heartbeat IPC: 0.673023 cumulative IPC: 0.694898 (Simulation time: 0 hr 55 min 24 sec) 
Heartbeat CPU 0 instructions: 69000002 cycles: 90113990 heartbeat IPC: 0.673358 cumulative IPC: 0.694522 (Simulation time: 0 hr 56 min 0 sec) 
Heartbeat CPU 0 instructions: 70000000 cycles: 91600924 heartbeat IPC: 0.672523 cumulative IPC: 0.694143 (Simulation time: 0 hr 56 min 30 sec) 
Heartbeat CPU 0 instructions: 71000001 cycles: 93088024 heartbeat IPC: 0.67245 cumulative IPC: 0.693776 (Simulation time: 0 hr 56 min 55 sec) 
Heartbeat CPU 0 instructions: 72000000 cycles: 94575634 heartbeat IPC: 0.672219 cumulative IPC: 0.693418 (Simulation time: 1 hr 26 min 16 sec) 
Heartbeat CPU 0 instructions: 73000000 cycles: 96061796 heartbeat IPC: 0.672874 cumulative IPC: 0.693082 (Simulation time: 1 hr 26 min 47 sec) 
Heartbeat CPU 0 instructions: 74000003 cycles: 97547495 heartbeat IPC: 0.673086 cumulative IPC: 0.69276 (Simulation time: 1 hr 27 min 14 sec) 
Heartbeat CPU 0 instructions: 75000003 cycles: 99033995 heartbeat IPC: 0.672721 cumulative IPC: 0.692443 (Simulation time: 1 hr 27 min 39 sec) 
Heartbeat CPU 0 instructions: 76000000 cycles: 100520223 heartbeat IPC: 0.672842 cumulative IPC: 0.692138 (Simulation time: 1 hr 28 min 2 sec) 
Heartbeat CPU 0 instructions: 77000002 cycles: 102008633 heartbeat IPC: 0.671859 cumulative IPC: 0.691826 (Simulation time: 1 hr 28 min 27 sec) 
Heartbeat CPU 0 instructions: 78000001 cycles: 103495987 heartbeat IPC: 0.672334 cumulative IPC: 0.691531 (Simulation time: 1 hr 28 min 54 sec) 
Heartbeat CPU 0 instructions: 79000001 cycles: 104983982 heartbeat IPC: 0.672045 cumulative IPC: 0.691241 (Simulation time: 1 hr 29 min 20 sec) 
Heartbeat CPU 0 instructions: 80000000 cycles: 106469537 heartbeat IPC: 0.673148 cumulative IPC: 0.690975 (Simulation time: 1 hr 29 min 43 sec) 
Heartbeat CPU 0 instructions: 81000000 cycles: 107957284 heartbeat IPC: 0.672157 cumulative IPC: 0.690703 (Simulation time: 1 hr 30 min 6 sec) 
Heartbeat CPU 0 instructions: 82000003 cycles: 109442670 heartbeat IPC: 0.673228 cumulative IPC: 0.690454 (Simulation time: 1 hr 30 min 29 sec) 
Heartbeat CPU 0 instructions: 83000003 cycles: 110932293 heartbeat IPC: 0.671311 cumulative IPC: 0.690184 (Simulation time: 1 hr 30 min 51 sec) 
Heartbeat CPU 0 instructions: 84000000 cycles: 112418193 heartbeat IPC: 0.672991 cumulative IPC: 0.689946 (Simulation time: 1 hr 31 min 12 sec) 
Heartbeat CPU 0 instructions: 85000002 cycles: 113904446 heartbeat IPC: 0.672834 cumulative IPC: 0.689712 (Simulation time: 1 hr 31 min 33 sec) 
Heartbeat CPU 0 instructions: 86000001 cycles: 115390239 heartbeat IPC: 0.673041 cumulative IPC: 0.689488 (Simulation time: 1 hr 31 min 52 sec) 
Heartbeat CPU 0 instructions: 87000001 cycles: 116876445 heartbeat IPC: 0.672854 cumulative IPC: 0.689266 (Simulation time: 1 hr 32 min 12 sec) 
Heartbeat CPU 0 instructions: 88000000 cycles: 118386557 heartbeat IPC: 0.662202 cumulative IPC: 0.688905 (Simulation time: 1 hr 32 min 29 sec) 
Heartbeat CPU 0 instructions: 89000003 cycles: 119890321 heartbeat IPC: 0.665 cumulative IPC: 0.688592 (Simulation time: 1 hr 32 min 47 sec) 
Heartbeat CPU 0 instructions: 90000003 cycles: 121396260 heartbeat IPC: 0.664038 cumulative IPC: 0.688274 (Simulation time: 1 hr 33 min 4 sec) 
Heartbeat CPU 0 instructions: 91000001 cycles: 122897094 heartbeat IPC: 0.666295 cumulative IPC: 0.687994 (Simulation time: 1 hr 33 min 21 sec) 
Heartbeat CPU 0 instructions: 92000000 cycles: 124405885 heartbeat IPC: 0.662782 cumulative IPC: 0.687675 (Simulation time: 1 hr 33 min 40 sec) 
Heartbeat CPU 0 instructions: 93000001 cycles: 125923677 heartbeat IPC: 0.658852 cumulative IPC: 0.687312 (Simulation time: 1 hr 33 min 57 sec) 
Heartbeat CPU 0 instructions: 94000001 cycles: 127436115 heartbeat IPC: 0.661184 cumulative IPC: 0.686989 (Simulation time: 1 hr 34 min 13 sec) 
Heartbeat CPU 0 instructions: 95000001 cycles: 128946333 heartbeat IPC: 0.662156 cumulative IPC: 0.686686 (Simulation time: 1 hr 34 min 28 sec) 
Heartbeat CPU 0 instructions: 96000000 cycles: 130456898 heartbeat IPC: 0.662003 cumulative IPC: 0.686389 (Simulation time: 1 hr 34 min 42 sec) 
Heartbeat CPU 0 instructions: 97000000 cycles: 131973215 heartbeat IPC: 0.659493 cumulative IPC: 0.686067 (Simulation time: 1 hr 34 min 57 sec) 
Heartbeat CPU 0 instructions: 98000000 cycles: 133486929 heartbeat IPC: 0.660627 cumulative IPC: 0.685767 (Simulation time: 1 hr 35 min 10 sec) 
Heartbeat CPU 0 instructions: 99000000 cycles: 134999105 heartbeat IPC: 0.661299 cumulative IPC: 0.685482 (Simulation time: 1 hr 35 min 24 sec) 
Heartbeat CPU 0 instructions: 100000000 cycles: 136514139 heartbeat IPC: 0.660051 cumulative IPC: 0.685189 (Simulation time: 1 hr 35 min 38 sec) 
Heartbeat CPU 0 instructions: 101000002 cycles: 138031494 heartbeat IPC: 0.659043 cumulative IPC: 0.68489 (Simulation time: 1 hr 35 min 51 sec) 
Heartbeat CPU 0 instructions: 102000002 cycles: 139545274 heartbeat IPC: 0.660598 cumulative IPC: 0.684616 (Simulation time: 1 hr 36 min 4 sec) 
Heartbeat CPU 0 instructions: 103000002 cycles: 141059494 heartbeat IPC: 0.660406 cumulative IPC: 0.684347 (Simulation time: 1 hr 36 min 15 sec) 
Heartbeat CPU 0 instructions: 104000000 cycles: 142575498 heartbeat IPC: 0.659628 cumulative IPC: 0.684074 (Simulation time: 1 hr 36 min 26 sec) 
Heartbeat CPU 0 instructions: 105000001 cycles: 144090810 heartbeat IPC: 0.659931 cumulative IPC: 0.683811 (Simulation time: 1 hr 36 min 37 sec) 
Heartbeat CPU 0 instructions: 106000001 cycles: 145606808 heartbeat IPC: 0.659631 cumulative IPC: 0.68355 (Simulation time: 1 hr 36 min 47 sec) 
Heartbeat CPU 0 instructions: 107000000 cycles: 147118027 heartbeat IPC: 0.661717 cumulative IPC: 0.683317 (Simulation time: 1 hr 36 min 57 sec) 
Heartbeat CPU 0 instructions: 108000000 cycles: 148632303 heartbeat IPC: 0.660382 cumulative IPC: 0.683075 (Simulation time: 1 hr 37 min 6 sec) 
Heartbeat CPU 0 instructions: 109000000 cycles: 150145446 heartbeat IPC: 0.660876 cumulative IPC: 0.682843 (Simulation time: 1 hr 37 min 15 sec) 
Heartbeat CPU 0 instructions: 110000001 cycles: 151648702 heartbeat IPC: 0.665223 cumulative IPC: 0.682663 (Simulation time: 1 hr 37 min 23 sec) 
Finished CPU 0 instructions: 100000000 cycles: 146485249 cummulative IPC: 0.682663 (Simulation time: 1 hr 37 min 23 sec) 

ChampSim completed all CPUs

Region of Interest Statistics

CPU 0 cummulative IPC: 0.682663 instructions: 100000000 cycles: 146485249
LLC TOTAL     ACCESS:    1088889  HIT:     141149  MISS:     947740
LLC LOAD      ACCESS:      57764  HIT:       8839  MISS:      48925
LLC RFO       ACCESS:     201510  HIT:       1435  MISS:     200075
LLC PREFETCH  ACCESS:     601123  HIT:      48870  MISS:     552253
LLC WRITEBACK ACCESS:     228492  HIT:      82005  MISS:     146487
Insertion Distribution: 
	LOAD 5750 0 0 25741 17720 
	RFO 0 0 0 45129 159122 
	PREF 0 0 0 89151 473646 
	WRITEBACK 0 0 0 0 146487 
Total Prefetch Downgrades: 494
