
*** ChampSim Multicore Out-of-Order Simulator ***

Warmup Instructions: 10000000
Simulation Instructions: 100000000
Configuration: 2
Number of CPUs: 1
LLC sets: 2048
LLC ways: 16
Off-chip DRAM Channels: 1 Width: 64-bit Data Rate: 1600 MT/s

CPU 0 runs /datasets/cs240c-wi22-a00-public/data/Assignment2-gz/lbm_1004B.trace.gz
CPU 0 L1D next line prefetcher
CPU 0 L2C IP-based stride prefetcher
Initialize SRRIP state
Heartbeat CPU 0 instructions: 1000002 cycles: 391414 heartbeat IPC: 2.55484 cumulative IPC: 2.55484 (Simulation time: 0 hr 0 min 32 sec) 
Heartbeat CPU 0 instructions: 2000001 cycles: 782838 heartbeat IPC: 2.55477 cumulative IPC: 2.55481 (Simulation time: 0 hr 1 min 4 sec) 
Heartbeat CPU 0 instructions: 3000001 cycles: 1174187 heartbeat IPC: 2.55526 cumulative IPC: 2.55496 (Simulation time: 0 hr 1 min 37 sec) 
Heartbeat CPU 0 instructions: 4000000 cycles: 1570372 heartbeat IPC: 2.52407 cumulative IPC: 2.54717 (Simulation time: 0 hr 2 min 12 sec) 
Heartbeat CPU 0 instructions: 5000002 cycles: 1961791 heartbeat IPC: 2.55481 cumulative IPC: 2.54869 (Simulation time: 0 hr 2 min 43 sec) 
Heartbeat CPU 0 instructions: 6000002 cycles: 2353159 heartbeat IPC: 2.55514 cumulative IPC: 2.54976 (Simulation time: 0 hr 3 min 12 sec) 
Heartbeat CPU 0 instructions: 7000003 cycles: 2749267 heartbeat IPC: 2.52457 cumulative IPC: 2.54613 (Simulation time: 0 hr 3 min 42 sec) 
Heartbeat CPU 0 instructions: 8000000 cycles: 3140614 heartbeat IPC: 2.55527 cumulative IPC: 2.54727 (Simulation time: 0 hr 4 min 10 sec) 
Heartbeat CPU 0 instructions: 9000003 cycles: 3532056 heartbeat IPC: 2.55466 cumulative IPC: 2.54809 (Simulation time: 0 hr 4 min 39 sec) 
Heartbeat CPU 0 instructions: 10000000 cycles: 3923430 heartbeat IPC: 2.55509 cumulative IPC: 2.54879 (Simulation time: 0 hr 5 min 11 sec) 

Warmup complete CPU 0 instructions: 10000004 cycles: 3923431 (Simulation time: 0 hr 5 min 11 sec) 

Heartbeat CPU 0 instructions: 11000002 cycles: 5467903 heartbeat IPC: 0.647471 cumulative IPC: 0.647469 (Simulation time: 0 hr 5 min 48 sec) 
Heartbeat CPU 0 instructions: 12000000 cycles: 6864833 heartbeat IPC: 0.715854 cumulative IPC: 0.679946 (Simulation time: 0 hr 6 min 24 sec) 
Heartbeat CPU 0 instructions: 13000002 cycles: 8359168 heartbeat IPC: 0.669195 cumulative IPC: 0.676325 (Simulation time: 0 hr 6 min 59 sec) 
Heartbeat CPU 0 instructions: 14000003 cycles: 9910918 heartbeat IPC: 0.644434 cumulative IPC: 0.66806 (Simulation time: 0 hr 7 min 39 sec) 
Heartbeat CPU 0 instructions: 15000003 cycles: 11326312 heartbeat IPC: 0.706517 cumulative IPC: 0.675413 (Simulation time: 0 hr 8 min 19 sec) 
Heartbeat CPU 0 instructions: 16000000 cycles: 12799868 heartbeat IPC: 0.678628 cumulative IPC: 0.675946 (Simulation time: 0 hr 8 min 57 sec) 
Heartbeat CPU 0 instructions: 17000000 cycles: 14320495 heartbeat IPC: 0.657623 cumulative IPC: 0.673267 (Simulation time: 0 hr 9 min 33 sec) 
Heartbeat CPU 0 instructions: 18000002 cycles: 15787955 heartbeat IPC: 0.681451 cumulative IPC: 0.674279 (Simulation time: 0 hr 10 min 6 sec) 
Heartbeat CPU 0 instructions: 19000002 cycles: 17256587 heartbeat IPC: 0.680906 cumulative IPC: 0.675009 (Simulation time: 0 hr 10 min 43 sec) 
Heartbeat CPU 0 instructions: 20000000 cycles: 18703405 heartbeat IPC: 0.691171 cumulative IPC: 0.676591 (Simulation time: 0 hr 11 min 14 sec) 
Heartbeat CPU 0 instructions: 21000003 cycles: 20209332 heartbeat IPC: 0.664045 cumulative IPC: 0.675431 (Simulation time: 0 hr 11 min 50 sec) 
Heartbeat CPU 0 instructions: 22000002 cycles: 21680778 heartbeat IPC: 0.679603 cumulative IPC: 0.675776 (Simulation time: 0 hr 12 min 26 sec) 
Heartbeat CPU 0 instructions: 23000001 cycles: 23115432 heartbeat IPC: 0.697031 cumulative IPC: 0.677365 (Simulation time: 0 hr 13 min 0 sec) 
Heartbeat CPU 0 instructions: 24000000 cycles: 24605798 heartbeat IPC: 0.670975 cumulative IPC: 0.676905 (Simulation time: 0 hr 13 min 34 sec) 
Heartbeat CPU 0 instructions: 25000003 cycles: 26079738 heartbeat IPC: 0.678456 cumulative IPC: 0.677008 (Simulation time: 0 hr 14 min 11 sec) 
Heartbeat CPU 0 instructions: 26000003 cycles: 27586195 heartbeat IPC: 0.663809 cumulative IPC: 0.676168 (Simulation time: 0 hr 14 min 48 sec) 
Heartbeat CPU 0 instructions: 27000001 cycles: 29018807 heartbeat IPC: 0.698024 cumulative IPC: 0.677415 (Simulation time: 0 hr 15 min 25 sec) 
Heartbeat CPU 0 instructions: 28000000 cycles: 30540634 heartbeat IPC: 0.657104 cumulative IPC: 0.676254 (Simulation time: 0 hr 16 min 1 sec) 
Heartbeat CPU 0 instructions: 29000002 cycles: 31999825 heartbeat IPC: 0.685313 cumulative IPC: 0.676725 (Simulation time: 0 hr 16 min 36 sec) 
Heartbeat CPU 0 instructions: 30000003 cycles: 33434742 heartbeat IPC: 0.696905 cumulative IPC: 0.677706 (Simulation time: 0 hr 17 min 11 sec) 
Heartbeat CPU 0 instructions: 31000001 cycles: 34959815 heartbeat IPC: 0.655705 cumulative IPC: 0.676625 (Simulation time: 0 hr 17 min 48 sec) 
Heartbeat CPU 0 instructions: 32000000 cycles: 36407420 heartbeat IPC: 0.690795 cumulative IPC: 0.677257 (Simulation time: 0 hr 18 min 24 sec) 
Heartbeat CPU 0 instructions: 33000000 cycles: 37901701 heartbeat IPC: 0.669218 cumulative IPC: 0.676903 (Simulation time: 0 hr 19 min 10 sec) 
Heartbeat CPU 0 instructions: 34000002 cycles: 39428247 heartbeat IPC: 0.655075 cumulative IPC: 0.675965 (Simulation time: 0 hr 19 min 53 sec) 
Heartbeat CPU 0 instructions: 35000001 cycles: 40901495 heartbeat IPC: 0.678772 cumulative IPC: 0.676076 (Simulation time: 0 hr 20 min 38 sec) 
Heartbeat CPU 0 instructions: 36000000 cycles: 42384261 heartbeat IPC: 0.674415 cumulative IPC: 0.676012 (Simulation time: 0 hr 21 min 24 sec) 
Heartbeat CPU 0 instructions: 37000002 cycles: 43827561 heartbeat IPC: 0.692858 cumulative IPC: 0.676622 (Simulation time: 0 hr 22 min 6 sec) 
Heartbeat CPU 0 instructions: 38000000 cycles: 45330643 heartbeat IPC: 0.665298 cumulative IPC: 0.676211 (Simulation time: 0 hr 22 min 41 sec) 
Heartbeat CPU 0 instructions: 39000003 cycles: 46794359 heartbeat IPC: 0.683195 cumulative IPC: 0.676449 (Simulation time: 0 hr 23 min 18 sec) 
Heartbeat CPU 0 instructions: 40000000 cycles: 48253926 heartbeat IPC: 0.685133 cumulative IPC: 0.676735 (Simulation time: 0 hr 23 min 51 sec) 
Heartbeat CPU 0 instructions: 41000002 cycles: 49709339 heartbeat IPC: 0.687092 cumulative IPC: 0.677064 (Simulation time: 0 hr 24 min 33 sec) 
Heartbeat CPU 0 instructions: 42000000 cycles: 51199614 heartbeat IPC: 0.671016 cumulative IPC: 0.676874 (Simulation time: 0 hr 25 min 17 sec) 
Heartbeat CPU 0 instructions: 43000002 cycles: 52638453 heartbeat IPC: 0.695006 cumulative IPC: 0.677409 (Simulation time: 0 hr 26 min 0 sec) 
Heartbeat CPU 0 instructions: 44000000 cycles: 54155121 heartbeat IPC: 0.659339 cumulative IPC: 0.676863 (Simulation time: 0 hr 26 min 46 sec) 
Heartbeat CPU 0 instructions: 45000000 cycles: 55619548 heartbeat IPC: 0.682861 cumulative IPC: 0.677033 (Simulation time: 0 hr 27 min 25 sec) 
Heartbeat CPU 0 instructions: 46000003 cycles: 57090583 heartbeat IPC: 0.679796 cumulative IPC: 0.67711 (Simulation time: 0 hr 28 min 1 sec) 
Heartbeat CPU 0 instructions: 47000002 cycles: 58574579 heartbeat IPC: 0.673856 cumulative IPC: 0.677021 (Simulation time: 0 hr 28 min 40 sec) 
Heartbeat CPU 0 instructions: 48000000 cycles: 60104359 heartbeat IPC: 0.653687 cumulative IPC: 0.676386 (Simulation time: 0 hr 29 min 21 sec) 
Heartbeat CPU 0 instructions: 49000000 cycles: 61556656 heartbeat IPC: 0.688564 cumulative IPC: 0.676693 (Simulation time: 0 hr 30 min 1 sec) 
Heartbeat CPU 0 instructions: 50000003 cycles: 63000535 heartbeat IPC: 0.692581 cumulative IPC: 0.677081 (Simulation time: 0 hr 30 min 40 sec) 
Heartbeat CPU 0 instructions: 51000001 cycles: 64543490 heartbeat IPC: 0.648106 cumulative IPC: 0.676344 (Simulation time: 0 hr 31 min 20 sec) 
Heartbeat CPU 0 instructions: 52000000 cycles: 65978509 heartbeat IPC: 0.696854 cumulative IPC: 0.676818 (Simulation time: 0 hr 31 min 58 sec) 
Heartbeat CPU 0 instructions: 53000002 cycles: 67450550 heartbeat IPC: 0.67933 cumulative IPC: 0.676876 (Simulation time: 0 hr 32 min 39 sec) 
Heartbeat CPU 0 instructions: 54000002 cycles: 68955871 heartbeat IPC: 0.66431 cumulative IPC: 0.676585 (Simulation time: 0 hr 33 min 18 sec) 
Heartbeat CPU 0 instructions: 55000001 cycles: 70489931 heartbeat IPC: 0.651864 cumulative IPC: 0.676016 (Simulation time: 0 hr 33 min 59 sec) 
Heartbeat CPU 0 instructions: 56000000 cycles: 71984320 heartbeat IPC: 0.669169 cumulative IPC: 0.675865 (Simulation time: 0 hr 34 min 38 sec) 
Heartbeat CPU 0 instructions: 57000003 cycles: 73462382 heartbeat IPC: 0.676564 cumulative IPC: 0.67588 (Simulation time: 0 hr 35 min 12 sec) 
Heartbeat CPU 0 instructions: 58000003 cycles: 74989901 heartbeat IPC: 0.654656 cumulative IPC: 0.675424 (Simulation time: 0 hr 35 min 49 sec) 
Heartbeat CPU 0 instructions: 59000002 cycles: 76486488 heartbeat IPC: 0.668186 cumulative IPC: 0.675275 (Simulation time: 0 hr 36 min 24 sec) 
Heartbeat CPU 0 instructions: 60000000 cycles: 77974595 heartbeat IPC: 0.671993 cumulative IPC: 0.675209 (Simulation time: 0 hr 36 min 56 sec) 
Heartbeat CPU 0 instructions: 61000003 cycles: 79503652 heartbeat IPC: 0.654 cumulative IPC: 0.67478 (Simulation time: 0 hr 37 min 36 sec) 
Heartbeat CPU 0 instructions: 62000001 cycles: 80960294 heartbeat IPC: 0.686509 cumulative IPC: 0.675002 (Simulation time: 0 hr 38 min 15 sec) 
Heartbeat CPU 0 instructions: 63000001 cycles: 82410207 heartbeat IPC: 0.689697 cumulative IPC: 0.675273 (Simulation time: 0 hr 38 min 51 sec) 
Heartbeat CPU 0 instructions: 64000000 cycles: 83862731 heartbeat IPC: 0.688456 cumulative IPC: 0.675512 (Simulation time: 0 hr 39 min 24 sec) 
Heartbeat CPU 0 instructions: 65000000 cycles: 85362456 heartbeat IPC: 0.666789 cumulative IPC: 0.675352 (Simulation time: 0 hr 39 min 54 sec) 
Heartbeat CPU 0 instructions: 66000000 cycles: 86802558 heartbeat IPC: 0.694395 cumulative IPC: 0.675683 (Simulation time: 0 hr 40 min 26 sec) 
Heartbeat CPU 0 instructions: 67000000 cycles: 88265933 heartbeat IPC: 0.683352 cumulative IPC: 0.675816 (Simulation time: 0 hr 40 min 58 sec) 
Heartbeat CPU 0 instructions: 68000000 cycles: 89800440 heartbeat IPC: 0.651675 cumulative IPC: 0.675384 (Simulation time: 0 hr 41 min 32 sec) 
Heartbeat CPU 0 instructions: 69000000 cycles: 91228384 heartbeat IPC: 0.700308 cumulative IPC: 0.675792 (Simulation time: 0 hr 42 min 8 sec) 
Heartbeat CPU 0 instructions: 70000000 cycles: 92661261 heartbeat IPC: 0.697897 cumulative IPC: 0.676149 (Simulation time: 0 hr 42 min 41 sec) 
Heartbeat CPU 0 instructions: 71000002 cycles: 94164416 heartbeat IPC: 0.665269 cumulative IPC: 0.675968 (Simulation time: 0 hr 43 min 13 sec) 
Heartbeat CPU 0 instructions: 72000000 cycles: 96423785 heartbeat IPC: 0.442601 cumulative IPC: 0.670268 (Simulation time: 0 hr 43 min 55 sec) 
Heartbeat CPU 0 instructions: 73000002 cycles: 99611638 heartbeat IPC: 0.313691 cumulative IPC: 0.658388 (Simulation time: 0 hr 44 min 47 sec) 
Heartbeat CPU 0 instructions: 74000002 cycles: 105925152 heartbeat IPC: 0.15839 cumulative IPC: 0.62744 (Simulation time: 0 hr 46 min 9 sec) 
Heartbeat CPU 0 instructions: 75000003 cycles: 108323800 heartbeat IPC: 0.416902 cumulative IPC: 0.622603 (Simulation time: 0 hr 46 min 56 sec) 
Heartbeat CPU 0 instructions: 76000000 cycles: 110379636 heartbeat IPC: 0.486419 cumulative IPC: 0.619973 (Simulation time: 0 hr 47 min 37 sec) 
Heartbeat CPU 0 instructions: 77000000 cycles: 111748263 heartbeat IPC: 0.730659 cumulative IPC: 0.621378 (Simulation time: 0 hr 48 min 13 sec) 
Heartbeat CPU 0 instructions: 78000002 cycles: 113108908 heartbeat IPC: 0.734947 cumulative IPC: 0.622793 (Simulation time: 0 hr 48 min 51 sec) 
Heartbeat CPU 0 instructions: 79000002 cycles: 114540769 heartbeat IPC: 0.698392 cumulative IPC: 0.623772 (Simulation time: 0 hr 49 min 25 sec) 
Heartbeat CPU 0 instructions: 80000000 cycles: 115960734 heartbeat IPC: 0.704241 cumulative IPC: 0.624792 (Simulation time: 0 hr 50 min 2 sec) 
Heartbeat CPU 0 instructions: 81000001 cycles: 117360401 heartbeat IPC: 0.714456 cumulative IPC: 0.625898 (Simulation time: 0 hr 50 min 37 sec) 
Heartbeat CPU 0 instructions: 82000002 cycles: 118769276 heartbeat IPC: 0.709787 cumulative IPC: 0.626927 (Simulation time: 0 hr 51 min 10 sec) 
Heartbeat CPU 0 instructions: 83000003 cycles: 120246523 heartbeat IPC: 0.676936 cumulative IPC: 0.627562 (Simulation time: 0 hr 51 min 47 sec) 
Heartbeat CPU 0 instructions: 84000000 cycles: 121672625 heartbeat IPC: 0.70121 cumulative IPC: 0.628454 (Simulation time: 0 hr 52 min 22 sec) 
Heartbeat CPU 0 instructions: 85000000 cycles: 123115881 heartbeat IPC: 0.692878 cumulative IPC: 0.629234 (Simulation time: 0 hr 52 min 59 sec) 
Heartbeat CPU 0 instructions: 86000000 cycles: 124667146 heartbeat IPC: 0.644635 cumulative IPC: 0.629432 (Simulation time: 0 hr 53 min 31 sec) 
Heartbeat CPU 0 instructions: 87000002 cycles: 126116936 heartbeat IPC: 0.689756 cumulative IPC: 0.630148 (Simulation time: 0 hr 54 min 4 sec) 
Heartbeat CPU 0 instructions: 88000000 cycles: 127550686 heartbeat IPC: 0.69747 cumulative IPC: 0.630929 (Simulation time: 0 hr 54 min 39 sec) 
Heartbeat CPU 0 instructions: 89000003 cycles: 129018748 heartbeat IPC: 0.681172 cumulative IPC: 0.631518 (Simulation time: 0 hr 55 min 8 sec) 
Heartbeat CPU 0 instructions: 90000002 cycles: 130520757 heartbeat IPC: 0.665774 cumulative IPC: 0.631925 (Simulation time: 0 hr 55 min 42 sec) 
Heartbeat CPU 0 instructions: 91000001 cycles: 131992718 heartbeat IPC: 0.679365 cumulative IPC: 0.63247 (Simulation time: 0 hr 56 min 13 sec) 
Heartbeat CPU 0 instructions: 92000000 cycles: 133461257 heartbeat IPC: 0.680948 cumulative IPC: 0.63302 (Simulation time: 0 hr 56 min 40 sec) 
Heartbeat CPU 0 instructions: 93000003 cycles: 134987164 heartbeat IPC: 0.65535 cumulative IPC: 0.63328 (Simulation time: 0 hr 57 min 1 sec) 
Heartbeat CPU 0 instructions: 94000003 cycles: 136463841 heartbeat IPC: 0.677196 cumulative IPC: 0.633769 (Simulation time: 1 hr 26 min 15 sec) 
Heartbeat CPU 0 instructions: 95000000 cycles: 137889304 heartbeat IPC: 0.701524 cumulative IPC: 0.63449 (Simulation time: 1 hr 26 min 42 sec) 
Heartbeat CPU 0 instructions: 96000000 cycles: 139416830 heartbeat IPC: 0.654653 cumulative IPC: 0.634717 (Simulation time: 1 hr 27 min 10 sec) 
Heartbeat CPU 0 instructions: 97000002 cycles: 140873376 heartbeat IPC: 0.686557 cumulative IPC: 0.635269 (Simulation time: 1 hr 27 min 34 sec) 
Heartbeat CPU 0 instructions: 98000001 cycles: 142309125 heartbeat IPC: 0.6965 cumulative IPC: 0.635904 (Simulation time: 1 hr 27 min 56 sec) 
Heartbeat CPU 0 instructions: 99000000 cycles: 143770281 heartbeat IPC: 0.684389 cumulative IPC: 0.63641 (Simulation time: 1 hr 28 min 17 sec) 
Heartbeat CPU 0 instructions: 100000000 cycles: 145308202 heartbeat IPC: 0.650228 cumulative IPC: 0.636561 (Simulation time: 1 hr 28 min 40 sec) 
Heartbeat CPU 0 instructions: 101000000 cycles: 146745544 heartbeat IPC: 0.695729 cumulative IPC: 0.637156 (Simulation time: 1 hr 29 min 1 sec) 
Heartbeat CPU 0 instructions: 102000000 cycles: 148209983 heartbeat IPC: 0.682855 cumulative IPC: 0.63762 (Simulation time: 1 hr 29 min 21 sec) 
Heartbeat CPU 0 instructions: 103000001 cycles: 149766848 heartbeat IPC: 0.642317 cumulative IPC: 0.63767 (Simulation time: 1 hr 29 min 43 sec) 
Heartbeat CPU 0 instructions: 104000000 cycles: 151251424 heartbeat IPC: 0.673592 cumulative IPC: 0.638032 (Simulation time: 1 hr 30 min 4 sec) 
Heartbeat CPU 0 instructions: 105000001 cycles: 152718404 heartbeat IPC: 0.681673 cumulative IPC: 0.638462 (Simulation time: 1 hr 30 min 26 sec) 
Heartbeat CPU 0 instructions: 106000000 cycles: 154175291 heartbeat IPC: 0.686394 cumulative IPC: 0.638927 (Simulation time: 1 hr 30 min 45 sec) 
Heartbeat CPU 0 instructions: 107000000 cycles: 155765013 heartbeat IPC: 0.629041 cumulative IPC: 0.638824 (Simulation time: 1 hr 31 min 6 sec) 
Heartbeat CPU 0 instructions: 108000000 cycles: 157255226 heartbeat IPC: 0.671045 cumulative IPC: 0.639137 (Simulation time: 1 hr 31 min 24 sec) 
Heartbeat CPU 0 instructions: 109000003 cycles: 158713727 heartbeat IPC: 0.685638 cumulative IPC: 0.639575 (Simulation time: 1 hr 31 min 42 sec) 
Heartbeat CPU 0 instructions: 110000001 cycles: 160250767 heartbeat IPC: 0.6506 cumulative IPC: 0.639683 (Simulation time: 1 hr 32 min 0 sec) 
Finished CPU 0 instructions: 100000001 cycles: 156327337 cummulative IPC: 0.639683 (Simulation time: 1 hr 32 min 0 sec) 

ChampSim completed all CPUs

Region of Interest Statistics

CPU 0 cummulative IPC: 0.639683 instructions: 100000001 cycles: 156327337
LLC TOTAL     ACCESS:    5798080  HIT:    1324398  MISS:    4473682
LLC LOAD      ACCESS:     418693  HIT:      19856  MISS:     398837
LLC RFO       ACCESS:    2473093  HIT:     335926  MISS:    2137167
LLC PREFETCH  ACCESS:     433176  HIT:      25743  MISS:     407433
LLC WRITEBACK ACCESS:    2473118  HIT:     942873  MISS:    1530245
Insertion Distribution: 
	LOAD 0 0 0 3662 425330 
	RFO 178454 0 0 408953 1745696 
	PREF 0 12276 0 56714 381899 
	WRITEBACK 0 0 0 0 1648372 
Total Prefetch Downgrades: 19819
