
*** ChampSim Multicore Out-of-Order Simulator ***

Warmup Instructions: 10000000
Simulation Instructions: 100000000
Configuration: 2
Number of CPUs: 1
LLC sets: 2048
LLC ways: 16
Off-chip DRAM Channels: 1 Width: 64-bit Data Rate: 1600 MT/s

CPU 0 runs /datasets/cs240c-wi22-a00-public/data/Assignment2-gz/omnetpp_4B.trace.gz
CPU 0 L1D next line prefetcher
CPU 0 L2C IP-based stride prefetcher
Initialize SRRIP state
Heartbeat CPU 0 instructions: 1000001 cycles: 566984 heartbeat IPC: 1.76372 cumulative IPC: 1.76372 (Simulation time: 0 hr 0 min 29 sec) 
Heartbeat CPU 0 instructions: 2000001 cycles: 1135714 heartbeat IPC: 1.7583 cumulative IPC: 1.76101 (Simulation time: 0 hr 0 min 57 sec) 
Heartbeat CPU 0 instructions: 3000001 cycles: 1722947 heartbeat IPC: 1.7029 cumulative IPC: 1.7412 (Simulation time: 0 hr 1 min 25 sec) 
Heartbeat CPU 0 instructions: 4000000 cycles: 2292440 heartbeat IPC: 1.75595 cumulative IPC: 1.74487 (Simulation time: 0 hr 1 min 53 sec) 
Heartbeat CPU 0 instructions: 5000000 cycles: 2866651 heartbeat IPC: 1.74152 cumulative IPC: 1.7442 (Simulation time: 0 hr 2 min 22 sec) 
Heartbeat CPU 0 instructions: 6000000 cycles: 3442827 heartbeat IPC: 1.73558 cumulative IPC: 1.74275 (Simulation time: 0 hr 2 min 53 sec) 
Heartbeat CPU 0 instructions: 7000000 cycles: 4012125 heartbeat IPC: 1.75655 cumulative IPC: 1.74471 (Simulation time: 0 hr 3 min 25 sec) 
Heartbeat CPU 0 instructions: 8000000 cycles: 4565609 heartbeat IPC: 1.80674 cumulative IPC: 1.75223 (Simulation time: 0 hr 3 min 53 sec) 
Heartbeat CPU 0 instructions: 9000001 cycles: 5147722 heartbeat IPC: 1.71788 cumulative IPC: 1.74835 (Simulation time: 0 hr 4 min 26 sec) 
Heartbeat CPU 0 instructions: 10000000 cycles: 5701704 heartbeat IPC: 1.80511 cumulative IPC: 1.75386 (Simulation time: 0 hr 4 min 57 sec) 

Warmup complete CPU 0 instructions: 10000003 cycles: 5701705 (Simulation time: 0 hr 4 min 57 sec) 

Heartbeat CPU 0 instructions: 11000000 cycles: 8873508 heartbeat IPC: 0.315278 cumulative IPC: 0.315277 (Simulation time: 0 hr 5 min 33 sec) 
Heartbeat CPU 0 instructions: 12000000 cycles: 10028610 heartbeat IPC: 0.865724 cumulative IPC: 0.462223 (Simulation time: 0 hr 5 min 59 sec) 
Heartbeat CPU 0 instructions: 13000003 cycles: 11173559 heartbeat IPC: 0.873404 cumulative IPC: 0.54826 (Simulation time: 0 hr 6 min 25 sec) 
Heartbeat CPU 0 instructions: 14000000 cycles: 12293827 heartbeat IPC: 0.892641 cumulative IPC: 0.606784 (Simulation time: 0 hr 6 min 51 sec) 
Heartbeat CPU 0 instructions: 15000000 cycles: 13433000 heartbeat IPC: 0.87783 cumulative IPC: 0.646722 (Simulation time: 0 hr 7 min 18 sec) 
Heartbeat CPU 0 instructions: 16000000 cycles: 16282184 heartbeat IPC: 0.350978 cumulative IPC: 0.567082 (Simulation time: 0 hr 7 min 50 sec) 
Heartbeat CPU 0 instructions: 17000003 cycles: 19139459 heartbeat IPC: 0.349985 cumulative IPC: 0.52092 (Simulation time: 0 hr 8 min 24 sec) 
Heartbeat CPU 0 instructions: 18000002 cycles: 21917892 heartbeat IPC: 0.359915 cumulative IPC: 0.493334 (Simulation time: 0 hr 8 min 57 sec) 
Heartbeat CPU 0 instructions: 19000002 cycles: 24721827 heartbeat IPC: 0.356642 cumulative IPC: 0.473183 (Simulation time: 0 hr 9 min 33 sec) 
Heartbeat CPU 0 instructions: 20000000 cycles: 28068741 heartbeat IPC: 0.298782 cumulative IPC: 0.447086 (Simulation time: 0 hr 10 min 8 sec) 
Heartbeat CPU 0 instructions: 21000000 cycles: 31385990 heartbeat IPC: 0.301455 cumulative IPC: 0.428277 (Simulation time: 0 hr 10 min 41 sec) 
Heartbeat CPU 0 instructions: 22000001 cycles: 34585535 heartbeat IPC: 0.312545 cumulative IPC: 0.415457 (Simulation time: 0 hr 11 min 14 sec) 
Heartbeat CPU 0 instructions: 23000000 cycles: 37430234 heartbeat IPC: 0.351531 cumulative IPC: 0.409726 (Simulation time: 0 hr 11 min 46 sec) 
Heartbeat CPU 0 instructions: 24000000 cycles: 40236673 heartbeat IPC: 0.356323 cumulative IPC: 0.405386 (Simulation time: 0 hr 12 min 17 sec) 
Heartbeat CPU 0 instructions: 25000000 cycles: 43017167 heartbeat IPC: 0.359648 cumulative IPC: 0.401978 (Simulation time: 0 hr 12 min 51 sec) 
Heartbeat CPU 0 instructions: 26000002 cycles: 45782252 heartbeat IPC: 0.361653 cumulative IPC: 0.399196 (Simulation time: 0 hr 13 min 23 sec) 
Heartbeat CPU 0 instructions: 27000001 cycles: 48591353 heartbeat IPC: 0.355985 cumulative IPC: 0.396366 (Simulation time: 0 hr 13 min 55 sec) 
Heartbeat CPU 0 instructions: 28000000 cycles: 51344442 heartbeat IPC: 0.363228 cumulative IPC: 0.394367 (Simulation time: 0 hr 14 min 26 sec) 
Heartbeat CPU 0 instructions: 29000001 cycles: 54182044 heartbeat IPC: 0.352411 cumulative IPC: 0.391911 (Simulation time: 0 hr 14 min 58 sec) 
Heartbeat CPU 0 instructions: 30000000 cycles: 56987704 heartbeat IPC: 0.356422 cumulative IPC: 0.38997 (Simulation time: 0 hr 15 min 30 sec) 
Heartbeat CPU 0 instructions: 31000002 cycles: 59775724 heartbeat IPC: 0.358678 cumulative IPC: 0.388357 (Simulation time: 0 hr 16 min 0 sec) 
Heartbeat CPU 0 instructions: 32000000 cycles: 62604403 heartbeat IPC: 0.353521 cumulative IPC: 0.386625 (Simulation time: 0 hr 16 min 29 sec) 
Heartbeat CPU 0 instructions: 33000000 cycles: 65764149 heartbeat IPC: 0.316481 cumulative IPC: 0.382935 (Simulation time: 0 hr 17 min 2 sec) 
Heartbeat CPU 0 instructions: 34000001 cycles: 69065880 heartbeat IPC: 0.302872 cumulative IPC: 0.378763 (Simulation time: 0 hr 17 min 34 sec) 
Heartbeat CPU 0 instructions: 35000001 cycles: 72096353 heartbeat IPC: 0.329982 cumulative IPC: 0.376536 (Simulation time: 0 hr 18 min 7 sec) 
Heartbeat CPU 0 instructions: 36000000 cycles: 75382703 heartbeat IPC: 0.304289 cumulative IPC: 0.373129 (Simulation time: 0 hr 18 min 44 sec) 
Heartbeat CPU 0 instructions: 37000001 cycles: 78174974 heartbeat IPC: 0.358132 cumulative IPC: 0.372551 (Simulation time: 0 hr 19 min 22 sec) 
Heartbeat CPU 0 instructions: 38000001 cycles: 81361830 heartbeat IPC: 0.313789 cumulative IPC: 0.370076 (Simulation time: 0 hr 20 min 4 sec) 
Heartbeat CPU 0 instructions: 39000001 cycles: 83881159 heartbeat IPC: 0.396931 cumulative IPC: 0.370941 (Simulation time: 0 hr 20 min 41 sec) 
Heartbeat CPU 0 instructions: 40000000 cycles: 85003561 heartbeat IPC: 0.890945 cumulative IPC: 0.378301 (Simulation time: 0 hr 21 min 10 sec) 
Heartbeat CPU 0 instructions: 41000001 cycles: 86129835 heartbeat IPC: 0.887884 cumulative IPC: 0.385437 (Simulation time: 0 hr 21 min 41 sec) 
Heartbeat CPU 0 instructions: 42000001 cycles: 87264210 heartbeat IPC: 0.881543 cumulative IPC: 0.392337 (Simulation time: 0 hr 22 min 15 sec) 
Heartbeat CPU 0 instructions: 43000002 cycles: 88479117 heartbeat IPC: 0.823109 cumulative IPC: 0.398659 (Simulation time: 0 hr 22 min 44 sec) 
Heartbeat CPU 0 instructions: 44000000 cycles: 91407781 heartbeat IPC: 0.341452 cumulative IPC: 0.396705 (Simulation time: 0 hr 23 min 20 sec) 
Heartbeat CPU 0 instructions: 45000000 cycles: 94287539 heartbeat IPC: 0.347251 cumulative IPC: 0.395097 (Simulation time: 0 hr 23 min 53 sec) 
Heartbeat CPU 0 instructions: 46000000 cycles: 97648806 heartbeat IPC: 0.297507 cumulative IPC: 0.391529 (Simulation time: 0 hr 24 min 33 sec) 
Heartbeat CPU 0 instructions: 47000000 cycles: 100971847 heartbeat IPC: 0.300929 cumulative IPC: 0.388369 (Simulation time: 0 hr 25 min 11 sec) 
Heartbeat CPU 0 instructions: 48000000 cycles: 104121892 heartbeat IPC: 0.317456 cumulative IPC: 0.3861 (Simulation time: 0 hr 25 min 47 sec) 
Heartbeat CPU 0 instructions: 49000000 cycles: 107036123 heartbeat IPC: 0.343144 cumulative IPC: 0.384864 (Simulation time: 0 hr 26 min 26 sec) 
Heartbeat CPU 0 instructions: 50000001 cycles: 109842149 heartbeat IPC: 0.356376 cumulative IPC: 0.384097 (Simulation time: 0 hr 27 min 3 sec) 
Heartbeat CPU 0 instructions: 51000003 cycles: 112647679 heartbeat IPC: 0.35644 cumulative IPC: 0.383371 (Simulation time: 0 hr 27 min 40 sec) 
Heartbeat CPU 0 instructions: 52000000 cycles: 115441698 heartbeat IPC: 0.357906 cumulative IPC: 0.382723 (Simulation time: 0 hr 28 min 18 sec) 
Heartbeat CPU 0 instructions: 53000003 cycles: 118237585 heartbeat IPC: 0.357669 cumulative IPC: 0.3821 (Simulation time: 0 hr 28 min 52 sec) 
Heartbeat CPU 0 instructions: 54000001 cycles: 121018841 heartbeat IPC: 0.359549 cumulative IPC: 0.381556 (Simulation time: 0 hr 29 min 31 sec) 
Heartbeat CPU 0 instructions: 55000001 cycles: 123950354 heartbeat IPC: 0.341121 cumulative IPC: 0.380554 (Simulation time: 0 hr 30 min 7 sec) 
Heartbeat CPU 0 instructions: 56000000 cycles: 126774353 heartbeat IPC: 0.354107 cumulative IPC: 0.379937 (Simulation time: 0 hr 30 min 46 sec) 
Heartbeat CPU 0 instructions: 57000003 cycles: 129549985 heartbeat IPC: 0.360279 cumulative IPC: 0.379497 (Simulation time: 0 hr 31 min 21 sec) 
Heartbeat CPU 0 instructions: 58000001 cycles: 132541553 heartbeat IPC: 0.334272 cumulative IPC: 0.37843 (Simulation time: 0 hr 31 min 59 sec) 
Heartbeat CPU 0 instructions: 59000001 cycles: 135822242 heartbeat IPC: 0.304814 cumulative IPC: 0.376574 (Simulation time: 0 hr 32 min 38 sec) 
Heartbeat CPU 0 instructions: 60000000 cycles: 138802251 heartbeat IPC: 0.335569 cumulative IPC: 0.375656 (Simulation time: 0 hr 33 min 14 sec) 
Heartbeat CPU 0 instructions: 61000001 cycles: 141858334 heartbeat IPC: 0.327217 cumulative IPC: 0.374569 (Simulation time: 0 hr 33 min 50 sec) 
Heartbeat CPU 0 instructions: 62000000 cycles: 145205844 heartbeat IPC: 0.298729 cumulative IPC: 0.372749 (Simulation time: 0 hr 34 min 28 sec) 
Heartbeat CPU 0 instructions: 63000001 cycles: 148032706 heartbeat IPC: 0.353749 cumulative IPC: 0.372371 (Simulation time: 0 hr 35 min 0 sec) 
Heartbeat CPU 0 instructions: 64000000 cycles: 150833571 heartbeat IPC: 0.357032 cumulative IPC: 0.372075 (Simulation time: 0 hr 35 min 29 sec) 
Heartbeat CPU 0 instructions: 65000001 cycles: 153621834 heartbeat IPC: 0.358647 cumulative IPC: 0.371822 (Simulation time: 0 hr 36 min 1 sec) 
Heartbeat CPU 0 instructions: 66000002 cycles: 157754478 heartbeat IPC: 0.241976 cumulative IPC: 0.368293 (Simulation time: 0 hr 36 min 40 sec) 
Heartbeat CPU 0 instructions: 67000001 cycles: 159408350 heartbeat IPC: 0.604641 cumulative IPC: 0.370836 (Simulation time: 0 hr 37 min 15 sec) 
Heartbeat CPU 0 instructions: 68000000 cycles: 160533555 heartbeat IPC: 0.888726 cumulative IPC: 0.3746 (Simulation time: 0 hr 37 min 41 sec) 
Heartbeat CPU 0 instructions: 69000003 cycles: 161675592 heartbeat IPC: 0.875631 cumulative IPC: 0.378268 (Simulation time: 0 hr 38 min 8 sec) 
Heartbeat CPU 0 instructions: 70000000 cycles: 162795838 heartbeat IPC: 0.892658 cumulative IPC: 0.381937 (Simulation time: 0 hr 38 min 34 sec) 
Heartbeat CPU 0 instructions: 71000001 cycles: 163971153 heartbeat IPC: 0.850837 cumulative IPC: 0.385419 (Simulation time: 0 hr 39 min 2 sec) 
Heartbeat CPU 0 instructions: 72000000 cycles: 167318388 heartbeat IPC: 0.298754 cumulative IPC: 0.383624 (Simulation time: 0 hr 39 min 41 sec) 
Heartbeat CPU 0 instructions: 73000000 cycles: 170709890 heartbeat IPC: 0.294855 cumulative IPC: 0.381799 (Simulation time: 0 hr 40 min 16 sec) 
Heartbeat CPU 0 instructions: 74000001 cycles: 174038302 heartbeat IPC: 0.300444 cumulative IPC: 0.380191 (Simulation time: 0 hr 40 min 49 sec) 
Heartbeat CPU 0 instructions: 75000001 cycles: 176945866 heartbeat IPC: 0.343931 cumulative IPC: 0.379575 (Simulation time: 0 hr 41 min 22 sec) 
Heartbeat CPU 0 instructions: 76000000 cycles: 179742353 heartbeat IPC: 0.357591 cumulative IPC: 0.379222 (Simulation time: 0 hr 41 min 53 sec) 
Heartbeat CPU 0 instructions: 77000000 cycles: 182552793 heartbeat IPC: 0.355816 cumulative IPC: 0.37885 (Simulation time: 0 hr 42 min 24 sec) 
Heartbeat CPU 0 instructions: 78000001 cycles: 185379741 heartbeat IPC: 0.353739 cumulative IPC: 0.378455 (Simulation time: 0 hr 42 min 57 sec) 
Heartbeat CPU 0 instructions: 79000001 cycles: 188183435 heartbeat IPC: 0.356672 cumulative IPC: 0.37812 (Simulation time: 0 hr 43 min 28 sec) 
Heartbeat CPU 0 instructions: 80000000 cycles: 190961338 heartbeat IPC: 0.359983 cumulative IPC: 0.377848 (Simulation time: 0 hr 43 min 59 sec) 
Heartbeat CPU 0 instructions: 81000002 cycles: 193813196 heartbeat IPC: 0.350649 cumulative IPC: 0.377436 (Simulation time: 0 hr 44 min 31 sec) 
Heartbeat CPU 0 instructions: 82000001 cycles: 196640869 heartbeat IPC: 0.353647 cumulative IPC: 0.377083 (Simulation time: 0 hr 45 min 1 sec) 
Heartbeat CPU 0 instructions: 83000002 cycles: 199501716 heartbeat IPC: 0.349547 cumulative IPC: 0.376677 (Simulation time: 0 hr 45 min 33 sec) 
Heartbeat CPU 0 instructions: 84000000 cycles: 202362890 heartbeat IPC: 0.349506 cumulative IPC: 0.376282 (Simulation time: 0 hr 46 min 5 sec) 
Heartbeat CPU 0 instructions: 85000002 cycles: 205667013 heartbeat IPC: 0.302653 cumulative IPC: 0.375065 (Simulation time: 0 hr 46 min 39 sec) 
Heartbeat CPU 0 instructions: 86000002 cycles: 208962586 heartbeat IPC: 0.303437 cumulative IPC: 0.373904 (Simulation time: 0 hr 47 min 15 sec) 
Heartbeat CPU 0 instructions: 87000000 cycles: 212004115 heartbeat IPC: 0.328781 cumulative IPC: 0.373238 (Simulation time: 0 hr 47 min 52 sec) 
Heartbeat CPU 0 instructions: 88000000 cycles: 215031702 heartbeat IPC: 0.330296 cumulative IPC: 0.372617 (Simulation time: 0 hr 48 min 27 sec) 
Heartbeat CPU 0 instructions: 89000002 cycles: 218121998 heartbeat IPC: 0.323594 cumulative IPC: 0.371904 (Simulation time: 0 hr 48 min 58 sec) 
Heartbeat CPU 0 instructions: 90000001 cycles: 220906472 heartbeat IPC: 0.359134 cumulative IPC: 0.371739 (Simulation time: 0 hr 49 min 28 sec) 
Heartbeat CPU 0 instructions: 91000001 cycles: 223717185 heartbeat IPC: 0.355782 cumulative IPC: 0.371533 (Simulation time: 0 hr 49 min 59 sec) 
Heartbeat CPU 0 instructions: 92000000 cycles: 226611852 heartbeat IPC: 0.345463 cumulative IPC: 0.371192 (Simulation time: 0 hr 50 min 36 sec) 
Heartbeat CPU 0 instructions: 93000000 cycles: 229449254 heartbeat IPC: 0.352435 cumulative IPC: 0.370954 (Simulation time: 0 hr 51 min 6 sec) 
Heartbeat CPU 0 instructions: 94000000 cycles: 233994671 heartbeat IPC: 0.220002 cumulative IPC: 0.367948 (Simulation time: 0 hr 51 min 44 sec) 
Heartbeat CPU 0 instructions: 95000000 cycles: 235179462 heartbeat IPC: 0.844031 cumulative IPC: 0.370406 (Simulation time: 0 hr 52 min 10 sec) 
Heartbeat CPU 0 instructions: 96000000 cycles: 236322443 heartbeat IPC: 0.874905 cumulative IPC: 0.372907 (Simulation time: 0 hr 52 min 33 sec) 
Heartbeat CPU 0 instructions: 97000002 cycles: 237441116 heartbeat IPC: 0.893918 cumulative IPC: 0.375422 (Simulation time: 0 hr 52 min 57 sec) 
Heartbeat CPU 0 instructions: 98000001 cycles: 238583056 heartbeat IPC: 0.875702 cumulative IPC: 0.377875 (Simulation time: 0 hr 53 min 21 sec) 
Heartbeat CPU 0 instructions: 99000002 cycles: 240453775 heartbeat IPC: 0.534554 cumulative IPC: 0.379123 (Simulation time: 0 hr 53 min 48 sec) 
Heartbeat CPU 0 instructions: 100000000 cycles: 243829593 heartbeat IPC: 0.296224 cumulative IPC: 0.377948 (Simulation time: 0 hr 54 min 17 sec) 
Heartbeat CPU 0 instructions: 101000002 cycles: 246925815 heartbeat IPC: 0.322975 cumulative IPC: 0.377243 (Simulation time: 0 hr 54 min 46 sec) 
Heartbeat CPU 0 instructions: 102000001 cycles: 249927493 heartbeat IPC: 0.333147 cumulative IPC: 0.376701 (Simulation time: 0 hr 55 min 14 sec) 
Heartbeat CPU 0 instructions: 103000000 cycles: 252728805 heartbeat IPC: 0.356975 cumulative IPC: 0.376477 (Simulation time: 0 hr 55 min 44 sec) 
Heartbeat CPU 0 instructions: 104000000 cycles: 255546468 heartbeat IPC: 0.354904 cumulative IPC: 0.376234 (Simulation time: 0 hr 56 min 11 sec) 
Heartbeat CPU 0 instructions: 105000001 cycles: 258336734 heartbeat IPC: 0.358389 cumulative IPC: 0.376037 (Simulation time: 0 hr 56 min 35 sec) 
Heartbeat CPU 0 instructions: 106000000 cycles: 261234572 heartbeat IPC: 0.345085 cumulative IPC: 0.375686 (Simulation time: 0 hr 56 min 57 sec) 
Heartbeat CPU 0 instructions: 107000002 cycles: 264074855 heartbeat IPC: 0.352078 cumulative IPC: 0.375426 (Simulation time: 1 hr 26 min 12 sec) 
Heartbeat CPU 0 instructions: 108000000 cycles: 266901249 heartbeat IPC: 0.353807 cumulative IPC: 0.375192 (Simulation time: 1 hr 26 min 35 sec) 
Heartbeat CPU 0 instructions: 109000002 cycles: 269700210 heartbeat IPC: 0.357276 cumulative IPC: 0.375002 (Simulation time: 1 hr 26 min 58 sec) 
Heartbeat CPU 0 instructions: 110000001 cycles: 272532954 heartbeat IPC: 0.353014 cumulative IPC: 0.374769 (Simulation time: 1 hr 27 min 21 sec) 
Finished CPU 0 instructions: 100000001 cycles: 266831251 cummulative IPC: 0.374769 (Simulation time: 1 hr 27 min 21 sec) 

ChampSim completed all CPUs

Region of Interest Statistics

CPU 0 cummulative IPC: 0.374769 instructions: 100000001 cycles: 266831251
LLC TOTAL     ACCESS:    4664947  HIT:    2407894  MISS:    2257053
LLC LOAD      ACCESS:    2183316  HIT:    2033678  MISS:     149638
LLC RFO       ACCESS:      24954  HIT:      12350  MISS:      12604
LLC PREFETCH  ACCESS:    2376308  HIT:     299991  MISS:    2076317
LLC WRITEBACK ACCESS:      80369  HIT:      61875  MISS:      18494
Insertion Distribution: 
	LOAD 52001 0 0 93360 82522 
	RFO 3381 0 0 4487 6380 
	PREF 0 12429 0 61373 2207246 
	WRITEBACK 0 0 0 0 19188 
Total Prefetch Downgrades: 12871
