
*** ChampSim Multicore Out-of-Order Simulator ***

Warmup Instructions: 10000000
Simulation Instructions: 100000000
Configuration: 2
Number of CPUs: 1
LLC sets: 2048
LLC ways: 16
Off-chip DRAM Channels: 1 Width: 64-bit Data Rate: 1600 MT/s

CPU 0 runs /datasets/cs240c-wi22-a00-public/data/Assignment2-gz/cactusADM_1495B.trace.gz
CPU 0 L1D next line prefetcher
CPU 0 L2C IP-based stride prefetcher
Initialize SRRIP state
Heartbeat CPU 0 instructions: 1000003 cycles: 593383 heartbeat IPC: 1.68526 cumulative IPC: 1.68526 (Simulation time: 0 hr 0 min 38 sec) 
Heartbeat CPU 0 instructions: 2000000 cycles: 1186345 heartbeat IPC: 1.68644 cumulative IPC: 1.68585 (Simulation time: 0 hr 1 min 16 sec) 
Heartbeat CPU 0 instructions: 3000003 cycles: 1779703 heartbeat IPC: 1.68533 cumulative IPC: 1.68568 (Simulation time: 0 hr 1 min 56 sec) 
Heartbeat CPU 0 instructions: 4000000 cycles: 2372522 heartbeat IPC: 1.68685 cumulative IPC: 1.68597 (Simulation time: 0 hr 2 min 33 sec) 
Heartbeat CPU 0 instructions: 5000000 cycles: 2965579 heartbeat IPC: 1.68618 cumulative IPC: 1.68601 (Simulation time: 0 hr 3 min 11 sec) 
Heartbeat CPU 0 instructions: 6000001 cycles: 3558796 heartbeat IPC: 1.68573 cumulative IPC: 1.68596 (Simulation time: 0 hr 3 min 49 sec) 
Heartbeat CPU 0 instructions: 7000000 cycles: 4151738 heartbeat IPC: 1.6865 cumulative IPC: 1.68604 (Simulation time: 0 hr 4 min 25 sec) 
Heartbeat CPU 0 instructions: 8000000 cycles: 4906787 heartbeat IPC: 1.32442 cumulative IPC: 1.63039 (Simulation time: 0 hr 5 min 11 sec) 
Heartbeat CPU 0 instructions: 9000002 cycles: 5499988 heartbeat IPC: 1.68577 cumulative IPC: 1.63637 (Simulation time: 0 hr 5 min 48 sec) 
Heartbeat CPU 0 instructions: 10000002 cycles: 6092912 heartbeat IPC: 1.68656 cumulative IPC: 1.64125 (Simulation time: 0 hr 6 min 23 sec) 

Warmup complete CPU 0 instructions: 10000002 cycles: 6092912 (Simulation time: 0 hr 6 min 23 sec) 

Heartbeat CPU 0 instructions: 11000000 cycles: 7785032 heartbeat IPC: 0.590973 cumulative IPC: 0.590973 (Simulation time: 0 hr 7 min 5 sec) 
Heartbeat CPU 0 instructions: 12000000 cycles: 9528488 heartbeat IPC: 0.573573 cumulative IPC: 0.582143 (Simulation time: 0 hr 7 min 49 sec) 
Heartbeat CPU 0 instructions: 13000002 cycles: 11273015 heartbeat IPC: 0.573222 cumulative IPC: 0.579139 (Simulation time: 0 hr 8 min 27 sec) 
Heartbeat CPU 0 instructions: 14000001 cycles: 13008483 heartbeat IPC: 0.576213 cumulative IPC: 0.578405 (Simulation time: 0 hr 9 min 5 sec) 
Heartbeat CPU 0 instructions: 15000001 cycles: 14665216 heartbeat IPC: 0.603598 cumulative IPC: 0.583274 (Simulation time: 0 hr 9 min 42 sec) 
Heartbeat CPU 0 instructions: 16000000 cycles: 16386688 heartbeat IPC: 0.580898 cumulative IPC: 0.582876 (Simulation time: 0 hr 10 min 23 sec) 
Heartbeat CPU 0 instructions: 17000003 cycles: 18130797 heartbeat IPC: 0.57336 cumulative IPC: 0.581498 (Simulation time: 0 hr 11 min 3 sec) 
Heartbeat CPU 0 instructions: 18000000 cycles: 19876307 heartbeat IPC: 0.572897 cumulative IPC: 0.580408 (Simulation time: 0 hr 11 min 48 sec) 
Heartbeat CPU 0 instructions: 19000002 cycles: 21586612 heartbeat IPC: 0.584692 cumulative IPC: 0.580881 (Simulation time: 0 hr 12 min 28 sec) 
Heartbeat CPU 0 instructions: 20000000 cycles: 23252787 heartbeat IPC: 0.600176 cumulative IPC: 0.582755 (Simulation time: 0 hr 13 min 11 sec) 
Heartbeat CPU 0 instructions: 21000001 cycles: 29567881 heartbeat IPC: 0.158351 cumulative IPC: 0.468584 (Simulation time: 0 hr 13 min 58 sec) 
Heartbeat CPU 0 instructions: 22000000 cycles: 31657236 heartbeat IPC: 0.478616 cumulative IPC: 0.469404 (Simulation time: 0 hr 14 min 38 sec) 
Heartbeat CPU 0 instructions: 23000001 cycles: 33388907 heartbeat IPC: 0.577477 cumulative IPC: 0.47626 (Simulation time: 0 hr 15 min 17 sec) 
Heartbeat CPU 0 instructions: 24000000 cycles: 35043912 heartbeat IPC: 0.604227 cumulative IPC: 0.483576 (Simulation time: 0 hr 16 min 0 sec) 
Heartbeat CPU 0 instructions: 25000002 cycles: 36769888 heartbeat IPC: 0.579383 cumulative IPC: 0.488966 (Simulation time: 0 hr 16 min 40 sec) 
Heartbeat CPU 0 instructions: 26000000 cycles: 38523328 heartbeat IPC: 0.570306 cumulative IPC: 0.493364 (Simulation time: 0 hr 17 min 19 sec) 
Heartbeat CPU 0 instructions: 27000002 cycles: 40262614 heartbeat IPC: 0.57495 cumulative IPC: 0.497517 (Simulation time: 0 hr 17 min 56 sec) 
Heartbeat CPU 0 instructions: 28000000 cycles: 41970249 heartbeat IPC: 0.585604 cumulative IPC: 0.501709 (Simulation time: 0 hr 18 min 40 sec) 
Heartbeat CPU 0 instructions: 29000003 cycles: 43627601 heartbeat IPC: 0.603374 cumulative IPC: 0.506198 (Simulation time: 0 hr 19 min 23 sec) 
Heartbeat CPU 0 instructions: 30000000 cycles: 45394493 heartbeat IPC: 0.565964 cumulative IPC: 0.508885 (Simulation time: 0 hr 20 min 8 sec) 
Heartbeat CPU 0 instructions: 31000003 cycles: 47135674 heartbeat IPC: 0.574325 cumulative IPC: 0.511661 (Simulation time: 0 hr 20 min 53 sec) 
Heartbeat CPU 0 instructions: 32000000 cycles: 48873791 heartbeat IPC: 0.575334 cumulative IPC: 0.514248 (Simulation time: 0 hr 21 min 41 sec) 
Heartbeat CPU 0 instructions: 33000001 cycles: 50552620 heartbeat IPC: 0.595654 cumulative IPC: 0.517322 (Simulation time: 0 hr 22 min 23 sec) 
Heartbeat CPU 0 instructions: 34000002 cycles: 55973689 heartbeat IPC: 0.184466 cumulative IPC: 0.481147 (Simulation time: 0 hr 23 min 9 sec) 
Heartbeat CPU 0 instructions: 35000002 cycles: 58960398 heartbeat IPC: 0.334817 cumulative IPC: 0.47288 (Simulation time: 0 hr 23 min 53 sec) 
Heartbeat CPU 0 instructions: 36000000 cycles: 60697215 heartbeat IPC: 0.575765 cumulative IPC: 0.476153 (Simulation time: 0 hr 24 min 39 sec) 
Heartbeat CPU 0 instructions: 37000001 cycles: 62411839 heartbeat IPC: 0.583219 cumulative IPC: 0.479413 (Simulation time: 0 hr 25 min 27 sec) 
Heartbeat CPU 0 instructions: 38000003 cycles: 64065243 heartbeat IPC: 0.604814 cumulative IPC: 0.482989 (Simulation time: 0 hr 26 min 14 sec) 
Heartbeat CPU 0 instructions: 39000003 cycles: 65795416 heartbeat IPC: 0.577977 cumulative IPC: 0.485742 (Simulation time: 0 hr 26 min 56 sec) 
Heartbeat CPU 0 instructions: 40000000 cycles: 67534125 heartbeat IPC: 0.575138 cumulative IPC: 0.488272 (Simulation time: 0 hr 27 min 47 sec) 
Heartbeat CPU 0 instructions: 41000002 cycles: 69270654 heartbeat IPC: 0.575863 cumulative IPC: 0.490679 (Simulation time: 0 hr 28 min 33 sec) 
Heartbeat CPU 0 instructions: 42000000 cycles: 70949887 heartbeat IPC: 0.595509 cumulative IPC: 0.493393 (Simulation time: 0 hr 29 min 19 sec) 
Heartbeat CPU 0 instructions: 43000000 cycles: 72630541 heartbeat IPC: 0.595006 cumulative IPC: 0.49596 (Simulation time: 0 hr 30 min 3 sec) 
Heartbeat CPU 0 instructions: 44000000 cycles: 74368043 heartbeat IPC: 0.575539 cumulative IPC: 0.497985 (Simulation time: 0 hr 30 min 51 sec) 
Heartbeat CPU 0 instructions: 45000003 cycles: 76106777 heartbeat IPC: 0.575133 cumulative IPC: 0.499901 (Simulation time: 0 hr 31 min 35 sec) 
Heartbeat CPU 0 instructions: 46000002 cycles: 77837671 heartbeat IPC: 0.577736 cumulative IPC: 0.501779 (Simulation time: 0 hr 32 min 19 sec) 
Heartbeat CPU 0 instructions: 47000002 cycles: 82215627 heartbeat IPC: 0.228417 cumulative IPC: 0.486057 (Simulation time: 0 hr 33 min 9 sec) 
Heartbeat CPU 0 instructions: 48000000 cycles: 86176664 heartbeat IPC: 0.252459 cumulative IPC: 0.474503 (Simulation time: 0 hr 34 min 1 sec) 
Heartbeat CPU 0 instructions: 49000000 cycles: 87912954 heartbeat IPC: 0.575941 cumulative IPC: 0.476656 (Simulation time: 0 hr 34 min 43 sec) 
Heartbeat CPU 0 instructions: 50000000 cycles: 89651005 heartbeat IPC: 0.575357 cumulative IPC: 0.478709 (Simulation time: 0 hr 35 min 26 sec) 
Heartbeat CPU 0 instructions: 51000000 cycles: 91337104 heartbeat IPC: 0.593085 cumulative IPC: 0.480971 (Simulation time: 0 hr 36 min 6 sec) 
Heartbeat CPU 0 instructions: 52000000 cycles: 93014847 heartbeat IPC: 0.596039 cumulative IPC: 0.483192 (Simulation time: 0 hr 36 min 47 sec) 
Heartbeat CPU 0 instructions: 53000003 cycles: 94750853 heartbeat IPC: 0.576037 cumulative IPC: 0.48501 (Simulation time: 0 hr 37 min 25 sec) 
Heartbeat CPU 0 instructions: 54000001 cycles: 96486967 heartbeat IPC: 0.575998 cumulative IPC: 0.486758 (Simulation time: 0 hr 38 min 8 sec) 
Heartbeat CPU 0 instructions: 55000000 cycles: 98220275 heartbeat IPC: 0.576931 cumulative IPC: 0.488454 (Simulation time: 0 hr 38 min 48 sec) 
Heartbeat CPU 0 instructions: 56000000 cycles: 99876261 heartbeat IPC: 0.60387 cumulative IPC: 0.490492 (Simulation time: 0 hr 39 min 26 sec) 
Heartbeat CPU 0 instructions: 57000000 cycles: 101585871 heartbeat IPC: 0.584929 cumulative IPC: 0.492183 (Simulation time: 0 hr 40 min 9 sec) 
Heartbeat CPU 0 instructions: 58000002 cycles: 103323336 heartbeat IPC: 0.575552 cumulative IPC: 0.493673 (Simulation time: 0 hr 40 min 46 sec) 
Heartbeat CPU 0 instructions: 59000001 cycles: 105061848 heartbeat IPC: 0.575204 cumulative IPC: 0.495105 (Simulation time: 0 hr 41 min 25 sec) 
Heartbeat CPU 0 instructions: 60000000 cycles: 108420989 heartbeat IPC: 0.297695 cumulative IPC: 0.488624 (Simulation time: 0 hr 42 min 5 sec) 
Heartbeat CPU 0 instructions: 61000001 cycles: 113388834 heartbeat IPC: 0.201295 cumulative IPC: 0.475321 (Simulation time: 0 hr 42 min 52 sec) 
Heartbeat CPU 0 instructions: 62000000 cycles: 115123884 heartbeat IPC: 0.576352 cumulative IPC: 0.476929 (Simulation time: 0 hr 43 min 30 sec) 
Heartbeat CPU 0 instructions: 63000000 cycles: 116863155 heartbeat IPC: 0.574954 cumulative IPC: 0.478468 (Simulation time: 0 hr 44 min 9 sec) 
Heartbeat CPU 0 instructions: 64000000 cycles: 118594805 heartbeat IPC: 0.577484 cumulative IPC: 0.479992 (Simulation time: 0 hr 44 min 52 sec) 
Heartbeat CPU 0 instructions: 65000002 cycles: 120254148 heartbeat IPC: 0.602649 cumulative IPC: 0.481775 (Simulation time: 0 hr 45 min 32 sec) 
Heartbeat CPU 0 instructions: 66000003 cycles: 121958963 heartbeat IPC: 0.586574 cumulative IPC: 0.483317 (Simulation time: 0 hr 46 min 12 sec) 
Heartbeat CPU 0 instructions: 67000001 cycles: 123696755 heartbeat IPC: 0.575442 cumulative IPC: 0.484678 (Simulation time: 0 hr 46 min 53 sec) 
Heartbeat CPU 0 instructions: 68000000 cycles: 125434666 heartbeat IPC: 0.575403 cumulative IPC: 0.485999 (Simulation time: 0 hr 47 min 34 sec) 
Heartbeat CPU 0 instructions: 69000003 cycles: 127150918 heartbeat IPC: 0.582667 cumulative IPC: 0.48737 (Simulation time: 0 hr 48 min 14 sec) 
Heartbeat CPU 0 instructions: 70000000 cycles: 128803828 heartbeat IPC: 0.604992 cumulative IPC: 0.488954 (Simulation time: 0 hr 48 min 53 sec) 
Heartbeat CPU 0 instructions: 71000002 cycles: 130531928 heartbeat IPC: 0.578671 cumulative IPC: 0.4902 (Simulation time: 0 hr 49 min 30 sec) 
Heartbeat CPU 0 instructions: 72000000 cycles: 132271148 heartbeat IPC: 0.574969 cumulative IPC: 0.491368 (Simulation time: 0 hr 50 min 10 sec) 
Heartbeat CPU 0 instructions: 73000001 cycles: 134739545 heartbeat IPC: 0.405122 cumulative IPC: 0.489714 (Simulation time: 0 hr 50 min 51 sec) 
Heartbeat CPU 0 instructions: 74000002 cycles: 140662798 heartbeat IPC: 0.168826 cumulative IPC: 0.475589 (Simulation time: 0 hr 51 min 37 sec) 
Heartbeat CPU 0 instructions: 75000002 cycles: 142361320 heartbeat IPC: 0.588747 cumulative IPC: 0.477 (Simulation time: 0 hr 52 min 17 sec) 
Heartbeat CPU 0 instructions: 76000000 cycles: 144100497 heartbeat IPC: 0.574983 cumulative IPC: 0.478235 (Simulation time: 0 hr 52 min 55 sec) 
Heartbeat CPU 0 instructions: 77000001 cycles: 145839218 heartbeat IPC: 0.575136 cumulative IPC: 0.47944 (Simulation time: 0 hr 53 min 44 sec) 
Heartbeat CPU 0 instructions: 78000000 cycles: 147562358 heartbeat IPC: 0.580335 cumulative IPC: 0.480669 (Simulation time: 0 hr 54 min 23 sec) 
Heartbeat CPU 0 instructions: 79000003 cycles: 149209716 heartbeat IPC: 0.607034 cumulative IPC: 0.482124 (Simulation time: 0 hr 55 min 0 sec) 
Heartbeat CPU 0 instructions: 80000000 cycles: 150940753 heartbeat IPC: 0.577687 cumulative IPC: 0.483266 (Simulation time: 0 hr 55 min 36 sec) 
Heartbeat CPU 0 instructions: 81000002 cycles: 152678991 heartbeat IPC: 0.575296 cumulative IPC: 0.484357 (Simulation time: 0 hr 56 min 13 sec) 
Heartbeat CPU 0 instructions: 82000000 cycles: 154417501 heartbeat IPC: 0.575204 cumulative IPC: 0.485422 (Simulation time: 1 hr 26 min 19 sec) 
Heartbeat CPU 0 instructions: 83000000 cycles: 156104593 heartbeat IPC: 0.592736 cumulative IPC: 0.486629 (Simulation time: 1 hr 26 min 50 sec) 
Heartbeat CPU 0 instructions: 84000000 cycles: 157780131 heartbeat IPC: 0.596823 cumulative IPC: 0.487846 (Simulation time: 1 hr 27 min 20 sec) 
Heartbeat CPU 0 instructions: 85000003 cycles: 159541650 heartbeat IPC: 0.567694 cumulative IPC: 0.488763 (Simulation time: 1 hr 27 min 48 sec) 
Heartbeat CPU 0 instructions: 86000000 cycles: 161281065 heartbeat IPC: 0.574904 cumulative IPC: 0.489728 (Simulation time: 1 hr 28 min 14 sec) 
Heartbeat CPU 0 instructions: 87000001 cycles: 168030681 heartbeat IPC: 0.148157 cumulative IPC: 0.475491 (Simulation time: 1 hr 28 min 43 sec) 
Heartbeat CPU 0 instructions: 88000000 cycles: 169676903 heartbeat IPC: 0.607451 cumulative IPC: 0.476819 (Simulation time: 1 hr 29 min 8 sec) 
Heartbeat CPU 0 instructions: 89000002 cycles: 171404269 heartbeat IPC: 0.578917 cumulative IPC: 0.477886 (Simulation time: 1 hr 29 min 34 sec) 
Heartbeat CPU 0 instructions: 90000001 cycles: 173169329 heartbeat IPC: 0.566552 cumulative IPC: 0.478823 (Simulation time: 1 hr 29 min 59 sec) 
Heartbeat CPU 0 instructions: 91000002 cycles: 174907609 heartbeat IPC: 0.575282 cumulative IPC: 0.479816 (Simulation time: 1 hr 30 min 22 sec) 
Heartbeat CPU 0 instructions: 92000000 cycles: 176602139 heartbeat IPC: 0.590133 cumulative IPC: 0.480912 (Simulation time: 1 hr 30 min 47 sec) 
Heartbeat CPU 0 instructions: 93000002 cycles: 178273351 heartbeat IPC: 0.598369 cumulative IPC: 0.482052 (Simulation time: 1 hr 31 min 11 sec) 
Heartbeat CPU 0 instructions: 94000002 cycles: 180007329 heartbeat IPC: 0.576709 cumulative IPC: 0.482996 (Simulation time: 1 hr 31 min 33 sec) 
Heartbeat CPU 0 instructions: 95000003 cycles: 181747108 heartbeat IPC: 0.574786 cumulative IPC: 0.483905 (Simulation time: 1 hr 31 min 54 sec) 
Heartbeat CPU 0 instructions: 96000000 cycles: 183481817 heartbeat IPC: 0.576464 cumulative IPC: 0.48481 (Simulation time: 1 hr 32 min 14 sec) 
Heartbeat CPU 0 instructions: 97000003 cycles: 185143036 heartbeat IPC: 0.601969 cumulative IPC: 0.485897 (Simulation time: 1 hr 32 min 35 sec) 
Heartbeat CPU 0 instructions: 98000003 cycles: 186843912 heartbeat IPC: 0.587932 cumulative IPC: 0.486858 (Simulation time: 1 hr 32 min 54 sec) 
Heartbeat CPU 0 instructions: 99000000 cycles: 188581630 heartbeat IPC: 0.575466 cumulative IPC: 0.487701 (Simulation time: 1 hr 33 min 13 sec) 
Heartbeat CPU 0 instructions: 100000000 cycles: 195342656 heartbeat IPC: 0.147907 cumulative IPC: 0.475562 (Simulation time: 1 hr 33 min 35 sec) 
Heartbeat CPU 0 instructions: 101000000 cycles: 197040755 heartbeat IPC: 0.588894 cumulative IPC: 0.47657 (Simulation time: 1 hr 33 min 54 sec) 
Heartbeat CPU 0 instructions: 102000003 cycles: 198709195 heartbeat IPC: 0.599364 cumulative IPC: 0.477634 (Simulation time: 1 hr 34 min 11 sec) 
Heartbeat CPU 0 instructions: 103000000 cycles: 200442066 heartbeat IPC: 0.577075 cumulative IPC: 0.47852 (Simulation time: 1 hr 34 min 27 sec) 
Heartbeat CPU 0 instructions: 104000000 cycles: 202181918 heartbeat IPC: 0.574762 cumulative IPC: 0.479374 (Simulation time: 1 hr 34 min 43 sec) 
Heartbeat CPU 0 instructions: 105000001 cycles: 203916472 heartbeat IPC: 0.576518 cumulative IPC: 0.480226 (Simulation time: 1 hr 34 min 59 sec) 
Heartbeat CPU 0 instructions: 106000000 cycles: 205584571 heartbeat IPC: 0.599484 cumulative IPC: 0.481223 (Simulation time: 1 hr 35 min 13 sec) 
Heartbeat CPU 0 instructions: 107000001 cycles: 207280291 heartbeat IPC: 0.589721 cumulative IPC: 0.482138 (Simulation time: 1 hr 35 min 29 sec) 
Heartbeat CPU 0 instructions: 108000000 cycles: 209018360 heartbeat IPC: 0.575351 cumulative IPC: 0.482936 (Simulation time: 1 hr 35 min 43 sec) 
Heartbeat CPU 0 instructions: 109000002 cycles: 210757389 heartbeat IPC: 0.575035 cumulative IPC: 0.483719 (Simulation time: 1 hr 35 min 57 sec) 
Heartbeat CPU 0 instructions: 110000001 cycles: 212482473 heartbeat IPC: 0.579681 cumulative IPC: 0.484521 (Simulation time: 1 hr 36 min 11 sec) 
Finished CPU 0 instructions: 100000003 cycles: 206389562 cummulative IPC: 0.484521 (Simulation time: 1 hr 36 min 11 sec) 

ChampSim completed all CPUs

Region of Interest Statistics

CPU 0 cummulative IPC: 0.484521 instructions: 100000003 cycles: 206389562
LLC TOTAL     ACCESS:    1107563  HIT:     335110  MISS:     772453
LLC LOAD      ACCESS:      23156  HIT:       3648  MISS:      19508
LLC RFO       ACCESS:     245174  HIT:      66671  MISS:     178503
LLC PREFETCH  ACCESS:     593721  HIT:     161741  MISS:     431980
LLC WRITEBACK ACCESS:     245512  HIT:     103050  MISS:     142462
Insertion Distribution: 
	LOAD 0 0 0 3771 17254 
	RFO 20689 0 0 21340 167195 
	PREF 0 30424 0 69164 397848 
	WRITEBACK 0 0 0 0 151728 
Total Prefetch Downgrades: 36106
