
*** ChampSim Multicore Out-of-Order Simulator ***

Warmup Instructions: 10000000
Simulation Instructions: 100000000
Configuration: 2
Number of CPUs: 1
LLC sets: 2048
LLC ways: 16
Off-chip DRAM Channels: 1 Width: 64-bit Data Rate: 1600 MT/s

CPU 0 runs /datasets/cs240c-wi22-a00-public/data/Assignment2-gz/cactusADM_734B.trace.gz
CPU 0 L1D next line prefetcher
CPU 0 L2C IP-based stride prefetcher
Initialize SRRIP state
Heartbeat CPU 0 instructions: 1000003 cycles: 592726 heartbeat IPC: 1.68713 cumulative IPC: 1.68713 (Simulation time: 0 hr 0 min 39 sec) 
Heartbeat CPU 0 instructions: 2000001 cycles: 1185927 heartbeat IPC: 1.68577 cumulative IPC: 1.68645 (Simulation time: 0 hr 1 min 20 sec) 
Heartbeat CPU 0 instructions: 3000003 cycles: 1778979 heartbeat IPC: 1.6862 cumulative IPC: 1.68636 (Simulation time: 0 hr 1 min 56 sec) 
Heartbeat CPU 0 instructions: 4000000 cycles: 2371929 heartbeat IPC: 1.68648 cumulative IPC: 1.68639 (Simulation time: 0 hr 2 min 30 sec) 
Heartbeat CPU 0 instructions: 5000000 cycles: 2965279 heartbeat IPC: 1.68535 cumulative IPC: 1.68618 (Simulation time: 0 hr 3 min 8 sec) 
Heartbeat CPU 0 instructions: 6000002 cycles: 3558551 heartbeat IPC: 1.68557 cumulative IPC: 1.68608 (Simulation time: 0 hr 3 min 44 sec) 
Heartbeat CPU 0 instructions: 7000000 cycles: 4151394 heartbeat IPC: 1.68678 cumulative IPC: 1.68618 (Simulation time: 0 hr 4 min 18 sec) 
Heartbeat CPU 0 instructions: 8000000 cycles: 4744343 heartbeat IPC: 1.68649 cumulative IPC: 1.68622 (Simulation time: 0 hr 4 min 54 sec) 
Heartbeat CPU 0 instructions: 9000001 cycles: 5337493 heartbeat IPC: 1.68592 cumulative IPC: 1.68619 (Simulation time: 0 hr 5 min 31 sec) 
Heartbeat CPU 0 instructions: 10000003 cycles: 5958967 heartbeat IPC: 1.60908 cumulative IPC: 1.67814 (Simulation time: 0 hr 6 min 10 sec) 

Warmup complete CPU 0 instructions: 10000003 cycles: 5958967 (Simulation time: 0 hr 6 min 10 sec) 

Heartbeat CPU 0 instructions: 11000002 cycles: 12570569 heartbeat IPC: 0.151249 cumulative IPC: 0.151249 (Simulation time: 0 hr 6 min 58 sec) 
Heartbeat CPU 0 instructions: 12000000 cycles: 14313515 heartbeat IPC: 0.57374 cumulative IPC: 0.23939 (Simulation time: 0 hr 7 min 39 sec) 
Heartbeat CPU 0 instructions: 13000002 cycles: 16002174 heartbeat IPC: 0.592187 cumulative IPC: 0.298709 (Simulation time: 0 hr 8 min 18 sec) 
Heartbeat CPU 0 instructions: 14000000 cycles: 17688683 heartbeat IPC: 0.59294 cumulative IPC: 0.341014 (Simulation time: 0 hr 8 min 55 sec) 
Heartbeat CPU 0 instructions: 15000003 cycles: 19428364 heartbeat IPC: 0.57482 cumulative IPC: 0.371212 (Simulation time: 0 hr 9 min 33 sec) 
Heartbeat CPU 0 instructions: 16000000 cycles: 21170879 heartbeat IPC: 0.573881 cumulative IPC: 0.394428 (Simulation time: 0 hr 10 min 10 sec) 
Heartbeat CPU 0 instructions: 17000002 cycles: 22904850 heartbeat IPC: 0.576712 cumulative IPC: 0.41308 (Simulation time: 0 hr 10 min 47 sec) 
Heartbeat CPU 0 instructions: 18000001 cycles: 24562901 heartbeat IPC: 0.603117 cumulative IPC: 0.430016 (Simulation time: 0 hr 11 min 24 sec) 
Heartbeat CPU 0 instructions: 19000000 cycles: 26280568 heartbeat IPC: 0.582184 cumulative IPC: 0.442878 (Simulation time: 0 hr 12 min 2 sec) 
Heartbeat CPU 0 instructions: 20000000 cycles: 28023620 heartbeat IPC: 0.573706 cumulative IPC: 0.453213 (Simulation time: 0 hr 12 min 42 sec) 
Heartbeat CPU 0 instructions: 21000002 cycles: 29766999 heartbeat IPC: 0.5736 cumulative IPC: 0.462029 (Simulation time: 0 hr 13 min 23 sec) 
Heartbeat CPU 0 instructions: 22000000 cycles: 31476660 heartbeat IPC: 0.58491 cumulative IPC: 0.470262 (Simulation time: 0 hr 14 min 0 sec) 
Heartbeat CPU 0 instructions: 23000001 cycles: 33140844 heartbeat IPC: 0.600896 cumulative IPC: 0.47826 (Simulation time: 0 hr 14 min 38 sec) 
Heartbeat CPU 0 instructions: 24000000 cycles: 40710737 heartbeat IPC: 0.132102 cumulative IPC: 0.402857 (Simulation time: 0 hr 15 min 24 sec) 
Heartbeat CPU 0 instructions: 25000000 cycles: 42449881 heartbeat IPC: 0.574996 cumulative IPC: 0.411061 (Simulation time: 0 hr 16 min 1 sec) 
Heartbeat CPU 0 instructions: 26000002 cycles: 44182096 heartbeat IPC: 0.577297 cumulative IPC: 0.418595 (Simulation time: 0 hr 16 min 41 sec) 
Heartbeat CPU 0 instructions: 27000002 cycles: 45841991 heartbeat IPC: 0.602448 cumulative IPC: 0.426246 (Simulation time: 0 hr 17 min 21 sec) 
Heartbeat CPU 0 instructions: 28000000 cycles: 47564854 heartbeat IPC: 0.580428 cumulative IPC: 0.432631 (Simulation time: 0 hr 17 min 58 sec) 
Heartbeat CPU 0 instructions: 29000001 cycles: 49321000 heartbeat IPC: 0.569429 cumulative IPC: 0.438171 (Simulation time: 0 hr 18 min 41 sec) 
Heartbeat CPU 0 instructions: 30000001 cycles: 51059820 heartbeat IPC: 0.575103 cumulative IPC: 0.443451 (Simulation time: 0 hr 19 min 22 sec) 
Heartbeat CPU 0 instructions: 31000003 cycles: 52769971 heartbeat IPC: 0.584745 cumulative IPC: 0.448612 (Simulation time: 0 hr 20 min 2 sec) 
Heartbeat CPU 0 instructions: 32000000 cycles: 54426055 heartbeat IPC: 0.603832 cumulative IPC: 0.453916 (Simulation time: 0 hr 20 min 48 sec) 
Heartbeat CPU 0 instructions: 33000000 cycles: 56158113 heartbeat IPC: 0.577348 cumulative IPC: 0.458175 (Simulation time: 0 hr 21 min 26 sec) 
Heartbeat CPU 0 instructions: 34000001 cycles: 57898695 heartbeat IPC: 0.574521 cumulative IPC: 0.462074 (Simulation time: 0 hr 22 min 8 sec) 
Heartbeat CPU 0 instructions: 35000000 cycles: 59634624 heartbeat IPC: 0.57606 cumulative IPC: 0.46576 (Simulation time: 0 hr 22 min 45 sec) 
Heartbeat CPU 0 instructions: 36000000 cycles: 61314911 heartbeat IPC: 0.595136 cumulative IPC: 0.469688 (Simulation time: 0 hr 23 min 27 sec) 
Heartbeat CPU 0 instructions: 37000003 cycles: 68842469 heartbeat IPC: 0.132846 cumulative IPC: 0.429365 (Simulation time: 0 hr 24 min 16 sec) 
Heartbeat CPU 0 instructions: 38000001 cycles: 70578480 heartbeat IPC: 0.576032 cumulative IPC: 0.433306 (Simulation time: 0 hr 24 min 58 sec) 
Heartbeat CPU 0 instructions: 39000001 cycles: 72315860 heartbeat IPC: 0.575579 cumulative IPC: 0.437031 (Simulation time: 0 hr 25 min 45 sec) 
Heartbeat CPU 0 instructions: 40000000 cycles: 74030739 heartbeat IPC: 0.583131 cumulative IPC: 0.440711 (Simulation time: 0 hr 26 min 27 sec) 
Heartbeat CPU 0 instructions: 41000001 cycles: 75682250 heartbeat IPC: 0.605507 cumulative IPC: 0.444615 (Simulation time: 0 hr 27 min 14 sec) 
Heartbeat CPU 0 instructions: 42000002 cycles: 77415014 heartbeat IPC: 0.577113 cumulative IPC: 0.447828 (Simulation time: 0 hr 27 min 57 sec) 
Heartbeat CPU 0 instructions: 43000000 cycles: 79153152 heartbeat IPC: 0.575327 cumulative IPC: 0.450855 (Simulation time: 0 hr 28 min 41 sec) 
Heartbeat CPU 0 instructions: 44000000 cycles: 80890876 heartbeat IPC: 0.575465 cumulative IPC: 0.453745 (Simulation time: 0 hr 29 min 25 sec) 
Heartbeat CPU 0 instructions: 45000000 cycles: 82573972 heartbeat IPC: 0.594143 cumulative IPC: 0.45683 (Simulation time: 0 hr 30 min 7 sec) 
Heartbeat CPU 0 instructions: 46000003 cycles: 84253755 heartbeat IPC: 0.595317 cumulative IPC: 0.459801 (Simulation time: 0 hr 30 min 53 sec) 
Heartbeat CPU 0 instructions: 47000001 cycles: 85989122 heartbeat IPC: 0.576246 cumulative IPC: 0.462326 (Simulation time: 0 hr 31 min 37 sec) 
Heartbeat CPU 0 instructions: 48000000 cycles: 87727653 heartbeat IPC: 0.575198 cumulative IPC: 0.464726 (Simulation time: 0 hr 32 min 23 sec) 
Heartbeat CPU 0 instructions: 49000000 cycles: 89462027 heartbeat IPC: 0.576577 cumulative IPC: 0.467049 (Simulation time: 0 hr 33 min 4 sec) 
Heartbeat CPU 0 instructions: 50000001 cycles: 96900044 heartbeat IPC: 0.134445 cumulative IPC: 0.439845 (Simulation time: 0 hr 33 min 47 sec) 
Heartbeat CPU 0 instructions: 51000000 cycles: 98628277 heartbeat IPC: 0.578625 cumulative IPC: 0.442433 (Simulation time: 0 hr 34 min 27 sec) 
Heartbeat CPU 0 instructions: 52000000 cycles: 100365097 heartbeat IPC: 0.575765 cumulative IPC: 0.444886 (Simulation time: 0 hr 35 min 7 sec) 
Heartbeat CPU 0 instructions: 53000003 cycles: 102103164 heartbeat IPC: 0.575354 cumulative IPC: 0.447245 (Simulation time: 0 hr 35 min 50 sec) 
Heartbeat CPU 0 instructions: 54000000 cycles: 103789919 heartbeat IPC: 0.592853 cumulative IPC: 0.449755 (Simulation time: 0 hr 36 min 30 sec) 
Heartbeat CPU 0 instructions: 55000001 cycles: 105464572 heartbeat IPC: 0.597139 cumulative IPC: 0.452236 (Simulation time: 0 hr 37 min 7 sec) 
Heartbeat CPU 0 instructions: 56000000 cycles: 107215774 heartbeat IPC: 0.571036 cumulative IPC: 0.45429 (Simulation time: 0 hr 37 min 46 sec) 
Heartbeat CPU 0 instructions: 57000000 cycles: 108964625 heartbeat IPC: 0.571804 cumulative IPC: 0.456286 (Simulation time: 0 hr 38 min 24 sec) 
Heartbeat CPU 0 instructions: 58000001 cycles: 110697581 heartbeat IPC: 0.577049 cumulative IPC: 0.458284 (Simulation time: 0 hr 39 min 3 sec) 
Heartbeat CPU 0 instructions: 59000000 cycles: 112355129 heartbeat IPC: 0.6033 cumulative IPC: 0.460543 (Simulation time: 0 hr 39 min 38 sec) 
Heartbeat CPU 0 instructions: 60000000 cycles: 114060942 heartbeat IPC: 0.586231 cumulative IPC: 0.462526 (Simulation time: 0 hr 40 min 17 sec) 
Heartbeat CPU 0 instructions: 61000002 cycles: 115799890 heartbeat IPC: 0.575062 cumulative IPC: 0.464308 (Simulation time: 0 hr 40 min 54 sec) 
Heartbeat CPU 0 instructions: 62000002 cycles: 117539630 heartbeat IPC: 0.574799 cumulative IPC: 0.466031 (Simulation time: 0 hr 41 min 33 sec) 
Heartbeat CPU 0 instructions: 63000002 cycles: 124901528 heartbeat IPC: 0.135835 cumulative IPC: 0.445593 (Simulation time: 0 hr 42 min 16 sec) 
Heartbeat CPU 0 instructions: 64000000 cycles: 126848272 heartbeat IPC: 0.513677 cumulative IPC: 0.44669 (Simulation time: 0 hr 42 min 56 sec) 
Heartbeat CPU 0 instructions: 65000003 cycles: 128582519 heartbeat IPC: 0.576621 cumulative IPC: 0.448527 (Simulation time: 0 hr 43 min 34 sec) 
Heartbeat CPU 0 instructions: 66000001 cycles: 130321526 heartbeat IPC: 0.57504 cumulative IPC: 0.450296 (Simulation time: 0 hr 44 min 13 sec) 
Heartbeat CPU 0 instructions: 67000000 cycles: 132056390 heartbeat IPC: 0.576414 cumulative IPC: 0.452031 (Simulation time: 0 hr 44 min 52 sec) 
Heartbeat CPU 0 instructions: 68000000 cycles: 133717138 heartbeat IPC: 0.602138 cumulative IPC: 0.453983 (Simulation time: 0 hr 45 min 29 sec) 
Heartbeat CPU 0 instructions: 69000000 cycles: 135417254 heartbeat IPC: 0.588195 cumulative IPC: 0.455745 (Simulation time: 0 hr 46 min 8 sec) 
Heartbeat CPU 0 instructions: 70000001 cycles: 137156194 heartbeat IPC: 0.575064 cumulative IPC: 0.457327 (Simulation time: 0 hr 46 min 46 sec) 
Heartbeat CPU 0 instructions: 71000001 cycles: 138896785 heartbeat IPC: 0.574517 cumulative IPC: 0.458861 (Simulation time: 0 hr 47 min 25 sec) 
Heartbeat CPU 0 instructions: 72000000 cycles: 140617066 heartbeat IPC: 0.5813 cumulative IPC: 0.460425 (Simulation time: 0 hr 48 min 4 sec) 
Heartbeat CPU 0 instructions: 73000003 cycles: 142265610 heartbeat IPC: 0.606598 cumulative IPC: 0.462193 (Simulation time: 0 hr 48 min 44 sec) 
Heartbeat CPU 0 instructions: 74000002 cycles: 143996875 heartbeat IPC: 0.577612 cumulative IPC: 0.463641 (Simulation time: 0 hr 49 min 22 sec) 
Heartbeat CPU 0 instructions: 75000002 cycles: 145737486 heartbeat IPC: 0.574511 cumulative IPC: 0.465021 (Simulation time: 0 hr 50 min 2 sec) 
Heartbeat CPU 0 instructions: 76000000 cycles: 151906904 heartbeat IPC: 0.16209 cumulative IPC: 0.452216 (Simulation time: 0 hr 50 min 48 sec) 
Heartbeat CPU 0 instructions: 77000000 cycles: 155088193 heartbeat IPC: 0.314338 cumulative IPC: 0.449275 (Simulation time: 0 hr 51 min 28 sec) 
Heartbeat CPU 0 instructions: 78000002 cycles: 156782766 heartbeat IPC: 0.59012 cumulative IPC: 0.450857 (Simulation time: 0 hr 52 min 6 sec) 
Heartbeat CPU 0 instructions: 79000002 cycles: 158522157 heartbeat IPC: 0.574914 cumulative IPC: 0.452272 (Simulation time: 0 hr 52 min 43 sec) 
Heartbeat CPU 0 instructions: 80000000 cycles: 160257891 heartbeat IPC: 0.576124 cumulative IPC: 0.453665 (Simulation time: 0 hr 53 min 21 sec) 
Heartbeat CPU 0 instructions: 81000000 cycles: 161984342 heartbeat IPC: 0.579223 cumulative IPC: 0.455054 (Simulation time: 0 hr 53 min 58 sec) 
Heartbeat CPU 0 instructions: 82000003 cycles: 163629010 heartbeat IPC: 0.608027 cumulative IPC: 0.45665 (Simulation time: 0 hr 54 min 33 sec) 
Heartbeat CPU 0 instructions: 83000003 cycles: 165358214 heartbeat IPC: 0.578301 cumulative IPC: 0.45797 (Simulation time: 0 hr 55 min 8 sec) 
Heartbeat CPU 0 instructions: 84000000 cycles: 167096249 heartbeat IPC: 0.575361 cumulative IPC: 0.459236 (Simulation time: 0 hr 55 min 42 sec) 
Heartbeat CPU 0 instructions: 85000003 cycles: 168835214 heartbeat IPC: 0.575056 cumulative IPC: 0.460472 (Simulation time: 0 hr 56 min 16 sec) 
Heartbeat CPU 0 instructions: 86000000 cycles: 170529438 heartbeat IPC: 0.590239 cumulative IPC: 0.461808 (Simulation time: 0 hr 56 min 43 sec) 
Heartbeat CPU 0 instructions: 87000000 cycles: 172203063 heartbeat IPC: 0.597505 cumulative IPC: 0.463174 (Simulation time: 0 hr 57 min 3 sec) 
Heartbeat CPU 0 instructions: 88000000 cycles: 173969305 heartbeat IPC: 0.566174 cumulative IPC: 0.464257 (Simulation time: 0 hr 57 min 10 sec) 
Heartbeat CPU 0 instructions: 89000002 cycles: 179070763 heartbeat IPC: 0.196023 cumulative IPC: 0.456353 (Simulation time: 1 hr 26 min 21 sec) 
Heartbeat CPU 0 instructions: 90000002 cycles: 183322843 heartbeat IPC: 0.235179 cumulative IPC: 0.45105 (Simulation time: 1 hr 26 min 52 sec) 
Heartbeat CPU 0 instructions: 91000003 cycles: 184969308 heartbeat IPC: 0.607362 cumulative IPC: 0.452488 (Simulation time: 1 hr 27 min 21 sec) 
Heartbeat CPU 0 instructions: 92000000 cycles: 186697213 heartbeat IPC: 0.578734 cumulative IPC: 0.453695 (Simulation time: 1 hr 27 min 47 sec) 
Heartbeat CPU 0 instructions: 93000000 cycles: 188435584 heartbeat IPC: 0.575251 cumulative IPC: 0.454853 (Simulation time: 1 hr 28 min 13 sec) 
Heartbeat CPU 0 instructions: 94000003 cycles: 190175374 heartbeat IPC: 0.574784 cumulative IPC: 0.455985 (Simulation time: 1 hr 28 min 37 sec) 
Heartbeat CPU 0 instructions: 95000000 cycles: 191875840 heartbeat IPC: 0.588072 cumulative IPC: 0.457194 (Simulation time: 1 hr 29 min 1 sec) 
Heartbeat CPU 0 instructions: 96000000 cycles: 193546079 heartbeat IPC: 0.598717 cumulative IPC: 0.458454 (Simulation time: 1 hr 29 min 25 sec) 
Heartbeat CPU 0 instructions: 97000001 cycles: 195281460 heartbeat IPC: 0.576243 cumulative IPC: 0.459533 (Simulation time: 1 hr 29 min 50 sec) 
Heartbeat CPU 0 instructions: 98000000 cycles: 197022492 heartbeat IPC: 0.574371 cumulative IPC: 0.46058 (Simulation time: 1 hr 30 min 15 sec) 
Heartbeat CPU 0 instructions: 99000001 cycles: 198760150 heartbeat IPC: 0.575488 cumulative IPC: 0.461615 (Simulation time: 1 hr 30 min 39 sec) 
Heartbeat CPU 0 instructions: 100000000 cycles: 200429976 heartbeat IPC: 0.598864 cumulative IPC: 0.462794 (Simulation time: 1 hr 31 min 1 sec) 
Heartbeat CPU 0 instructions: 101000000 cycles: 202131933 heartbeat IPC: 0.587559 cumulative IPC: 0.463876 (Simulation time: 1 hr 31 min 24 sec) 
Heartbeat CPU 0 instructions: 102000002 cycles: 206147377 heartbeat IPC: 0.249039 cumulative IPC: 0.459567 (Simulation time: 1 hr 31 min 45 sec) 
Heartbeat CPU 0 instructions: 103000000 cycles: 211489330 heartbeat IPC: 0.187197 cumulative IPC: 0.452488 (Simulation time: 1 hr 32 min 5 sec) 
Heartbeat CPU 0 instructions: 104000000 cycles: 213192065 heartbeat IPC: 0.58729 cumulative IPC: 0.453595 (Simulation time: 1 hr 32 min 24 sec) 
Heartbeat CPU 0 instructions: 105000000 cycles: 214855269 heartbeat IPC: 0.601249 cumulative IPC: 0.454771 (Simulation time: 1 hr 32 min 41 sec) 
Heartbeat CPU 0 instructions: 106000002 cycles: 216588610 heartbeat IPC: 0.576922 cumulative IPC: 0.455776 (Simulation time: 1 hr 32 min 57 sec) 
Heartbeat CPU 0 instructions: 107000001 cycles: 218328072 heartbeat IPC: 0.57489 cumulative IPC: 0.456752 (Simulation time: 1 hr 33 min 14 sec) 
Heartbeat CPU 0 instructions: 108000000 cycles: 220064026 heartbeat IPC: 0.576052 cumulative IPC: 0.457719 (Simulation time: 1 hr 33 min 32 sec) 
Heartbeat CPU 0 instructions: 109000001 cycles: 221736642 heartbeat IPC: 0.597866 cumulative IPC: 0.458806 (Simulation time: 1 hr 33 min 48 sec) 
Heartbeat CPU 0 instructions: 110000003 cycles: 223429808 heartbeat IPC: 0.590611 cumulative IPC: 0.459832 (Simulation time: 1 hr 34 min 4 sec) 
Finished CPU 0 instructions: 100000000 cycles: 217470841 cummulative IPC: 0.459832 (Simulation time: 1 hr 34 min 4 sec) 

ChampSim completed all CPUs

Region of Interest Statistics

CPU 0 cummulative IPC: 0.459832 instructions: 100000000 cycles: 217470841
LLC TOTAL     ACCESS:    1164080  HIT:     327681  MISS:     836399
LLC LOAD      ACCESS:      21734  HIT:       2496  MISS:      19238
LLC RFO       ACCESS:     264086  HIT:      77781  MISS:     186305
LLC PREFETCH  ACCESS:     612154  HIT:     132088  MISS:     480066
LLC WRITEBACK ACCESS:     266106  HIT:     115316  MISS:     150790
Insertion Distribution: 
	LOAD 0 0 0 10431 9998 
	RFO 12026 0 0 20025 166738 
	PREF 0 45673 0 62275 422165 
	WRITEBACK 0 0 0 0 153182 
Total Prefetch Downgrades: 51405
