
*** ChampSim Multicore Out-of-Order Simulator ***

Warmup Instructions: 10000000
Simulation Instructions: 100000000
Configuration: 2
Number of CPUs: 1
LLC sets: 2048
LLC ways: 16
Off-chip DRAM Channels: 1 Width: 64-bit Data Rate: 1600 MT/s

CPU 0 runs /datasets/cs240c-wi22-a00-public/data/Assignment2-gz/bzip2_259B.trace.gz
CPU 0 L1D next line prefetcher
CPU 0 L2C IP-based stride prefetcher
Initialize SRRIP state
Heartbeat CPU 0 instructions: 1000002 cycles: 428875 heartbeat IPC: 2.33169 cumulative IPC: 2.33169 (Simulation time: 0 hr 0 min 34 sec) 
Heartbeat CPU 0 instructions: 2000003 cycles: 861057 heartbeat IPC: 2.31384 cumulative IPC: 2.32273 (Simulation time: 0 hr 1 min 6 sec) 
Heartbeat CPU 0 instructions: 3000001 cycles: 1286790 heartbeat IPC: 2.34889 cumulative IPC: 2.33138 (Simulation time: 0 hr 1 min 38 sec) 
Heartbeat CPU 0 instructions: 4000000 cycles: 1685062 heartbeat IPC: 2.51084 cumulative IPC: 2.3738 (Simulation time: 0 hr 2 min 6 sec) 
Heartbeat CPU 0 instructions: 5000001 cycles: 2103495 heartbeat IPC: 2.38987 cumulative IPC: 2.377 (Simulation time: 0 hr 2 min 38 sec) 
Heartbeat CPU 0 instructions: 6000001 cycles: 2532858 heartbeat IPC: 2.32903 cumulative IPC: 2.36887 (Simulation time: 0 hr 3 min 14 sec) 
Heartbeat CPU 0 instructions: 7000003 cycles: 2961906 heartbeat IPC: 2.33075 cumulative IPC: 2.36334 (Simulation time: 0 hr 3 min 45 sec) 
Heartbeat CPU 0 instructions: 8000000 cycles: 3391719 heartbeat IPC: 2.32659 cumulative IPC: 2.35869 (Simulation time: 0 hr 4 min 17 sec) 
Heartbeat CPU 0 instructions: 9000000 cycles: 3819845 heartbeat IPC: 2.33576 cumulative IPC: 2.35612 (Simulation time: 0 hr 4 min 47 sec) 
Heartbeat CPU 0 instructions: 10000002 cycles: 4193917 heartbeat IPC: 2.67329 cumulative IPC: 2.38441 (Simulation time: 0 hr 5 min 15 sec) 

Warmup complete CPU 0 instructions: 10000002 cycles: 4193917 (Simulation time: 0 hr 5 min 15 sec) 

Heartbeat CPU 0 instructions: 11000002 cycles: 5034789 heartbeat IPC: 1.18924 cumulative IPC: 1.18924 (Simulation time: 0 hr 5 min 45 sec) 
Heartbeat CPU 0 instructions: 12000000 cycles: 6140435 heartbeat IPC: 0.904447 cumulative IPC: 1.02747 (Simulation time: 0 hr 6 min 21 sec) 
Heartbeat CPU 0 instructions: 13000002 cycles: 7084320 heartbeat IPC: 1.05945 cumulative IPC: 1.03792 (Simulation time: 0 hr 6 min 56 sec) 
Heartbeat CPU 0 instructions: 14000003 cycles: 7999066 heartbeat IPC: 1.0932 cumulative IPC: 1.05121 (Simulation time: 0 hr 7 min 32 sec) 
Heartbeat CPU 0 instructions: 15000002 cycles: 9024146 heartbeat IPC: 0.975533 cumulative IPC: 1.03515 (Simulation time: 0 hr 8 min 9 sec) 
Heartbeat CPU 0 instructions: 16000000 cycles: 10024574 heartbeat IPC: 0.99957 cumulative IPC: 1.02904 (Simulation time: 0 hr 8 min 46 sec) 
Heartbeat CPU 0 instructions: 17000002 cycles: 11143502 heartbeat IPC: 0.893714 cumulative IPC: 1.00725 (Simulation time: 0 hr 9 min 21 sec) 
Heartbeat CPU 0 instructions: 18000001 cycles: 12237303 heartbeat IPC: 0.914242 cumulative IPC: 0.994606 (Simulation time: 0 hr 9 min 55 sec) 
Heartbeat CPU 0 instructions: 19000003 cycles: 13208773 heartbeat IPC: 1.02937 cumulative IPC: 0.998352 (Simulation time: 0 hr 10 min 26 sec) 
Heartbeat CPU 0 instructions: 20000000 cycles: 14216680 heartbeat IPC: 0.992152 cumulative IPC: 0.997729 (Simulation time: 0 hr 11 min 0 sec) 
Heartbeat CPU 0 instructions: 21000001 cycles: 15123161 heartbeat IPC: 1.10317 cumulative IPC: 1.00647 (Simulation time: 0 hr 11 min 32 sec) 
Heartbeat CPU 0 instructions: 22000001 cycles: 16035136 heartbeat IPC: 1.09652 cumulative IPC: 1.01341 (Simulation time: 0 hr 12 min 2 sec) 
Heartbeat CPU 0 instructions: 23000002 cycles: 16939689 heartbeat IPC: 1.10552 cumulative IPC: 1.01995 (Simulation time: 0 hr 12 min 31 sec) 
Heartbeat CPU 0 instructions: 24000000 cycles: 17840700 heartbeat IPC: 1.10986 cumulative IPC: 1.02588 (Simulation time: 0 hr 13 min 2 sec) 
Heartbeat CPU 0 instructions: 25000000 cycles: 18741624 heartbeat IPC: 1.10997 cumulative IPC: 1.03109 (Simulation time: 0 hr 13 min 33 sec) 
Heartbeat CPU 0 instructions: 26000000 cycles: 19668116 heartbeat IPC: 1.07934 cumulative IPC: 1.03398 (Simulation time: 0 hr 14 min 6 sec) 
Heartbeat CPU 0 instructions: 27000003 cycles: 20604392 heartbeat IPC: 1.06806 cumulative IPC: 1.03592 (Simulation time: 0 hr 14 min 37 sec) 
Heartbeat CPU 0 instructions: 28000000 cycles: 21516799 heartbeat IPC: 1.096 cumulative IPC: 1.03909 (Simulation time: 0 hr 15 min 10 sec) 
Heartbeat CPU 0 instructions: 29000000 cycles: 22423158 heartbeat IPC: 1.10332 cumulative IPC: 1.04228 (Simulation time: 0 hr 15 min 43 sec) 
Heartbeat CPU 0 instructions: 30000001 cycles: 23380859 heartbeat IPC: 1.04417 cumulative IPC: 1.04238 (Simulation time: 0 hr 16 min 14 sec) 
Heartbeat CPU 0 instructions: 31000001 cycles: 24284168 heartbeat IPC: 1.10704 cumulative IPC: 1.04528 (Simulation time: 0 hr 16 min 44 sec) 
Heartbeat CPU 0 instructions: 32000000 cycles: 25176403 heartbeat IPC: 1.12078 cumulative IPC: 1.04849 (Simulation time: 0 hr 17 min 14 sec) 
Heartbeat CPU 0 instructions: 33000002 cycles: 26281973 heartbeat IPC: 0.904513 cumulative IPC: 1.04129 (Simulation time: 0 hr 17 min 47 sec) 
Heartbeat CPU 0 instructions: 34000003 cycles: 27484169 heartbeat IPC: 0.831812 cumulative IPC: 1.03047 (Simulation time: 0 hr 18 min 23 sec) 
Heartbeat CPU 0 instructions: 35000001 cycles: 28525913 heartbeat IPC: 0.959927 cumulative IPC: 1.02745 (Simulation time: 0 hr 19 min 0 sec) 
Heartbeat CPU 0 instructions: 36000000 cycles: 29699963 heartbeat IPC: 0.851752 cumulative IPC: 1.01937 (Simulation time: 0 hr 19 min 37 sec) 
Heartbeat CPU 0 instructions: 37000002 cycles: 30742974 heartbeat IPC: 0.958765 cumulative IPC: 1.01699 (Simulation time: 0 hr 20 min 9 sec) 
Heartbeat CPU 0 instructions: 38000003 cycles: 31858207 heartbeat IPC: 0.896675 cumulative IPC: 1.01214 (Simulation time: 0 hr 20 min 42 sec) 
Heartbeat CPU 0 instructions: 39000001 cycles: 33002182 heartbeat IPC: 0.874143 cumulative IPC: 1.00666 (Simulation time: 0 hr 21 min 12 sec) 
Heartbeat CPU 0 instructions: 40000000 cycles: 34071478 heartbeat IPC: 0.935194 cumulative IPC: 1.0041 (Simulation time: 0 hr 21 min 46 sec) 
Heartbeat CPU 0 instructions: 41000001 cycles: 35260974 heartbeat IPC: 0.840693 cumulative IPC: 0.997842 (Simulation time: 0 hr 22 min 16 sec) 
Heartbeat CPU 0 instructions: 42000000 cycles: 36470632 heartbeat IPC: 0.826679 cumulative IPC: 0.991427 (Simulation time: 0 hr 22 min 45 sec) 
Heartbeat CPU 0 instructions: 43000003 cycles: 37687142 heartbeat IPC: 0.822026 cumulative IPC: 0.985274 (Simulation time: 0 hr 23 min 14 sec) 
Heartbeat CPU 0 instructions: 44000000 cycles: 38900127 heartbeat IPC: 0.82441 cumulative IPC: 0.979652 (Simulation time: 0 hr 23 min 42 sec) 
Heartbeat CPU 0 instructions: 45000000 cycles: 40121869 heartbeat IPC: 0.818503 cumulative IPC: 0.974172 (Simulation time: 0 hr 24 min 12 sec) 
Heartbeat CPU 0 instructions: 46000002 cycles: 41360563 heartbeat IPC: 0.807303 cumulative IPC: 0.96861 (Simulation time: 0 hr 24 min 41 sec) 
Heartbeat CPU 0 instructions: 47000000 cycles: 42592128 heartbeat IPC: 0.811973 cumulative IPC: 0.963587 (Simulation time: 0 hr 25 min 15 sec) 
Heartbeat CPU 0 instructions: 48000000 cycles: 43830306 heartbeat IPC: 0.807638 cumulative IPC: 0.958715 (Simulation time: 0 hr 25 min 51 sec) 
Heartbeat CPU 0 instructions: 49000003 cycles: 45100547 heartbeat IPC: 0.787255 cumulative IPC: 0.953391 (Simulation time: 0 hr 26 min 42 sec) 
Heartbeat CPU 0 instructions: 50000001 cycles: 46139846 heartbeat IPC: 0.962185 cumulative IPC: 0.953609 (Simulation time: 0 hr 27 min 33 sec) 
Heartbeat CPU 0 instructions: 51000002 cycles: 47305011 heartbeat IPC: 0.858248 cumulative IPC: 0.951031 (Simulation time: 0 hr 28 min 23 sec) 
Heartbeat CPU 0 instructions: 52000000 cycles: 48423171 heartbeat IPC: 0.894325 cumulative IPC: 0.949598 (Simulation time: 0 hr 29 min 10 sec) 
Heartbeat CPU 0 instructions: 53000001 cycles: 49618810 heartbeat IPC: 0.836374 cumulative IPC: 0.946617 (Simulation time: 0 hr 29 min 58 sec) 
Heartbeat CPU 0 instructions: 54000000 cycles: 50844254 heartbeat IPC: 0.81603 cumulative IPC: 0.943187 (Simulation time: 0 hr 30 min 41 sec) 
Heartbeat CPU 0 instructions: 55000000 cycles: 51995855 heartbeat IPC: 0.868356 cumulative IPC: 0.941384 (Simulation time: 0 hr 31 min 36 sec) 
Heartbeat CPU 0 instructions: 56000000 cycles: 53220938 heartbeat IPC: 0.816271 cumulative IPC: 0.938258 (Simulation time: 0 hr 32 min 25 sec) 
Heartbeat CPU 0 instructions: 57000000 cycles: 54441994 heartbeat IPC: 0.818963 cumulative IPC: 0.935359 (Simulation time: 0 hr 33 min 13 sec) 
Heartbeat CPU 0 instructions: 58000002 cycles: 55474236 heartbeat IPC: 0.968767 cumulative IPC: 0.936032 (Simulation time: 0 hr 34 min 2 sec) 
Heartbeat CPU 0 instructions: 59000000 cycles: 56575325 heartbeat IPC: 0.90819 cumulative IPC: 0.935446 (Simulation time: 0 hr 34 min 46 sec) 
Heartbeat CPU 0 instructions: 60000000 cycles: 57755522 heartbeat IPC: 0.847316 cumulative IPC: 0.933504 (Simulation time: 0 hr 35 min 29 sec) 
Heartbeat CPU 0 instructions: 61000000 cycles: 58900084 heartbeat IPC: 0.873697 cumulative IPC: 0.932253 (Simulation time: 0 hr 36 min 13 sec) 
Heartbeat CPU 0 instructions: 62000002 cycles: 59745203 heartbeat IPC: 1.18327 cumulative IPC: 0.936072 (Simulation time: 0 hr 36 min 53 sec) 
Heartbeat CPU 0 instructions: 63000003 cycles: 60671332 heartbeat IPC: 1.07976 cumulative IPC: 0.938428 (Simulation time: 0 hr 37 min 46 sec) 
Heartbeat CPU 0 instructions: 64000000 cycles: 61745316 heartbeat IPC: 0.93111 cumulative IPC: 0.938292 (Simulation time: 0 hr 38 min 44 sec) 
Heartbeat CPU 0 instructions: 65000003 cycles: 62744528 heartbeat IPC: 1.00079 cumulative IPC: 0.939358 (Simulation time: 0 hr 39 min 34 sec) 
Heartbeat CPU 0 instructions: 66000003 cycles: 63687411 heartbeat IPC: 1.06058 cumulative IPC: 0.941279 (Simulation time: 0 hr 40 min 8 sec) 
Heartbeat CPU 0 instructions: 67000003 cycles: 64727861 heartbeat IPC: 0.961123 cumulative IPC: 0.94162 (Simulation time: 0 hr 40 min 42 sec) 
Heartbeat CPU 0 instructions: 68000000 cycles: 65797532 heartbeat IPC: 0.934864 cumulative IPC: 0.941503 (Simulation time: 0 hr 41 min 19 sec) 
Heartbeat CPU 0 instructions: 69000003 cycles: 66921033 heartbeat IPC: 0.890078 cumulative IPC: 0.940582 (Simulation time: 0 hr 41 min 57 sec) 
Heartbeat CPU 0 instructions: 70000003 cycles: 68177375 heartbeat IPC: 0.795962 cumulative IPC: 0.937742 (Simulation time: 0 hr 42 min 35 sec) 
Heartbeat CPU 0 instructions: 71000000 cycles: 69501318 heartbeat IPC: 0.755317 cumulative IPC: 0.934044 (Simulation time: 0 hr 43 min 13 sec) 
Heartbeat CPU 0 instructions: 72000000 cycles: 70664284 heartbeat IPC: 0.85987 cumulative IPC: 0.932746 (Simulation time: 0 hr 43 min 46 sec) 
Heartbeat CPU 0 instructions: 73000003 cycles: 71969065 heartbeat IPC: 0.766414 cumulative IPC: 0.929544 (Simulation time: 0 hr 44 min 18 sec) 
Heartbeat CPU 0 instructions: 74000001 cycles: 73212588 heartbeat IPC: 0.804165 cumulative IPC: 0.927285 (Simulation time: 0 hr 44 min 51 sec) 
Heartbeat CPU 0 instructions: 75000000 cycles: 74365130 heartbeat IPC: 0.867646 cumulative IPC: 0.926306 (Simulation time: 0 hr 45 min 26 sec) 
Heartbeat CPU 0 instructions: 76000000 cycles: 75437507 heartbeat IPC: 0.932508 cumulative IPC: 0.926399 (Simulation time: 0 hr 46 min 1 sec) 
Heartbeat CPU 0 instructions: 77000003 cycles: 76397595 heartbeat IPC: 1.04157 cumulative IPC: 0.927931 (Simulation time: 0 hr 46 min 36 sec) 
Heartbeat CPU 0 instructions: 78000000 cycles: 77358164 heartbeat IPC: 1.04105 cumulative IPC: 0.929416 (Simulation time: 0 hr 47 min 9 sec) 
Heartbeat CPU 0 instructions: 79000003 cycles: 78425547 heartbeat IPC: 0.936874 cumulative IPC: 0.929523 (Simulation time: 0 hr 47 min 45 sec) 
Heartbeat CPU 0 instructions: 80000000 cycles: 79642056 heartbeat IPC: 0.822022 cumulative IPC: 0.92779 (Simulation time: 0 hr 48 min 16 sec) 
Heartbeat CPU 0 instructions: 81000001 cycles: 80794944 heartbeat IPC: 0.867388 cumulative IPC: 0.926881 (Simulation time: 0 hr 48 min 51 sec) 
Heartbeat CPU 0 instructions: 82000000 cycles: 81900526 heartbeat IPC: 0.9045 cumulative IPC: 0.926562 (Simulation time: 0 hr 49 min 23 sec) 
Heartbeat CPU 0 instructions: 83000002 cycles: 82945519 heartbeat IPC: 0.956946 cumulative IPC: 0.926965 (Simulation time: 0 hr 49 min 56 sec) 
Heartbeat CPU 0 instructions: 84000000 cycles: 83886394 heartbeat IPC: 1.06284 cumulative IPC: 0.928569 (Simulation time: 0 hr 50 min 27 sec) 
Heartbeat CPU 0 instructions: 85000003 cycles: 84828793 heartbeat IPC: 1.06112 cumulative IPC: 0.930119 (Simulation time: 0 hr 50 min 56 sec) 
Heartbeat CPU 0 instructions: 86000003 cycles: 85875046 heartbeat IPC: 0.955792 cumulative IPC: 0.930447 (Simulation time: 0 hr 51 min 27 sec) 
Heartbeat CPU 0 instructions: 87000002 cycles: 86950020 heartbeat IPC: 0.930254 cumulative IPC: 0.930445 (Simulation time: 0 hr 51 min 59 sec) 
Heartbeat CPU 0 instructions: 88000000 cycles: 88053309 heartbeat IPC: 0.906379 cumulative IPC: 0.930128 (Simulation time: 0 hr 52 min 28 sec) 
Heartbeat CPU 0 instructions: 89000002 cycles: 89059677 heartbeat IPC: 0.993674 cumulative IPC: 0.930882 (Simulation time: 0 hr 52 min 55 sec) 
Heartbeat CPU 0 instructions: 90000001 cycles: 90183568 heartbeat IPC: 0.889765 cumulative IPC: 0.930345 (Simulation time: 0 hr 53 min 23 sec) 
Heartbeat CPU 0 instructions: 91000002 cycles: 91297088 heartbeat IPC: 0.898054 cumulative IPC: 0.929932 (Simulation time: 0 hr 53 min 52 sec) 
Heartbeat CPU 0 instructions: 92000000 cycles: 92335766 heartbeat IPC: 0.96276 cumulative IPC: 0.930319 (Simulation time: 0 hr 54 min 19 sec) 
Heartbeat CPU 0 instructions: 93000000 cycles: 93523901 heartbeat IPC: 0.841655 cumulative IPC: 0.929139 (Simulation time: 0 hr 54 min 45 sec) 
Heartbeat CPU 0 instructions: 94000003 cycles: 94700099 heartbeat IPC: 0.8502 cumulative IPC: 0.928113 (Simulation time: 0 hr 55 min 9 sec) 
Heartbeat CPU 0 instructions: 95000002 cycles: 95885113 heartbeat IPC: 0.843871 cumulative IPC: 0.927025 (Simulation time: 0 hr 55 min 32 sec) 
Heartbeat CPU 0 instructions: 96000000 cycles: 97055370 heartbeat IPC: 0.854511 cumulative IPC: 0.926111 (Simulation time: 0 hr 55 min 58 sec) 
Heartbeat CPU 0 instructions: 97000002 cycles: 98272293 heartbeat IPC: 0.821746 cumulative IPC: 0.924761 (Simulation time: 0 hr 56 min 20 sec) 
Heartbeat CPU 0 instructions: 98000000 cycles: 99506083 heartbeat IPC: 0.810509 cumulative IPC: 0.923282 (Simulation time: 0 hr 56 min 42 sec) 
Heartbeat CPU 0 instructions: 99000000 cycles: 100745416 heartbeat IPC: 0.806886 cumulative IPC: 0.921788 (Simulation time: 0 hr 56 min 58 sec) 
Heartbeat CPU 0 instructions: 100000000 cycles: 101987473 heartbeat IPC: 0.805116 cumulative IPC: 0.920306 (Simulation time: 1 hr 26 min 9 sec) 
Heartbeat CPU 0 instructions: 101000003 cycles: 103135280 heartbeat IPC: 0.871229 cumulative IPC: 0.919737 (Simulation time: 1 hr 26 min 29 sec) 
Heartbeat CPU 0 instructions: 102000000 cycles: 104254271 heartbeat IPC: 0.89366 cumulative IPC: 0.919445 (Simulation time: 1 hr 26 min 51 sec) 
Heartbeat CPU 0 instructions: 103000000 cycles: 105355629 heartbeat IPC: 0.90797 cumulative IPC: 0.91932 (Simulation time: 1 hr 27 min 12 sec) 
Heartbeat CPU 0 instructions: 104000000 cycles: 106508910 heartbeat IPC: 0.867091 cumulative IPC: 0.918731 (Simulation time: 1 hr 27 min 31 sec) 
Heartbeat CPU 0 instructions: 105000002 cycles: 107720180 heartbeat IPC: 0.825581 cumulative IPC: 0.917642 (Simulation time: 1 hr 27 min 50 sec) 
Heartbeat CPU 0 instructions: 106000001 cycles: 108853738 heartbeat IPC: 0.882177 cumulative IPC: 0.917257 (Simulation time: 1 hr 28 min 10 sec) 
Heartbeat CPU 0 instructions: 107000000 cycles: 110056586 heartbeat IPC: 0.831359 cumulative IPC: 0.916281 (Simulation time: 1 hr 28 min 28 sec) 
Heartbeat CPU 0 instructions: 108000000 cycles: 111255780 heartbeat IPC: 0.833893 cumulative IPC: 0.915359 (Simulation time: 1 hr 28 min 46 sec) 
Heartbeat CPU 0 instructions: 109000000 cycles: 112268273 heartbeat IPC: 0.987661 cumulative IPC: 0.916036 (Simulation time: 1 hr 29 min 3 sec) 
Heartbeat CPU 0 instructions: 110000000 cycles: 113429637 heartbeat IPC: 0.861057 cumulative IPC: 0.915451 (Simulation time: 1 hr 29 min 18 sec) 
Finished CPU 0 instructions: 100000002 cycles: 109235722 cummulative IPC: 0.915451 (Simulation time: 1 hr 29 min 18 sec) 

ChampSim completed all CPUs

Region of Interest Statistics

CPU 0 cummulative IPC: 0.915451 instructions: 100000002 cycles: 109235722
LLC TOTAL     ACCESS:    1373539  HIT:    1059081  MISS:     314458
LLC LOAD      ACCESS:     396210  HIT:     350015  MISS:      46195
LLC RFO       ACCESS:     104384  HIT:      40135  MISS:      64249
LLC PREFETCH  ACCESS:     675962  HIT:     510631  MISS:     165331
LLC WRITEBACK ACCESS:     196983  HIT:     158300  MISS:      38683
Insertion Distribution: 
	LOAD 38415 0 0 7520 406 
	RFO 19693 0 0 27429 33081 
	PREF 0 16815 0 53123 95873 
	WRITEBACK 0 0 0 0 38687 
Total Prefetch Downgrades: 28001
