
*** ChampSim Multicore Out-of-Order Simulator ***

Warmup Instructions: 10000000
Simulation Instructions: 100000000
Configuration: 2
Number of CPUs: 1
LLC sets: 2048
LLC ways: 16
Off-chip DRAM Channels: 1 Width: 64-bit Data Rate: 1600 MT/s

CPU 0 runs /datasets/cs240c-wi22-a00-public/data/Assignment2-gz/wrf_1228B.trace.gz
CPU 0 L1D next line prefetcher
CPU 0 L2C IP-based stride prefetcher
Initialize SRRIP state
Heartbeat CPU 0 instructions: 1000003 cycles: 591063 heartbeat IPC: 1.69187 cumulative IPC: 1.69187 (Simulation time: 0 hr 0 min 40 sec) 
Heartbeat CPU 0 instructions: 2000003 cycles: 1111219 heartbeat IPC: 1.9225 cumulative IPC: 1.79983 (Simulation time: 0 hr 1 min 20 sec) 
Heartbeat CPU 0 instructions: 3000000 cycles: 1729185 heartbeat IPC: 1.61821 cumulative IPC: 1.73492 (Simulation time: 0 hr 1 min 58 sec) 
Heartbeat CPU 0 instructions: 4000000 cycles: 2349837 heartbeat IPC: 1.61121 cumulative IPC: 1.70225 (Simulation time: 0 hr 2 min 35 sec) 
Heartbeat CPU 0 instructions: 5000000 cycles: 3052201 heartbeat IPC: 1.42376 cumulative IPC: 1.63816 (Simulation time: 0 hr 3 min 13 sec) 
Heartbeat CPU 0 instructions: 6000000 cycles: 3612288 heartbeat IPC: 1.78544 cumulative IPC: 1.661 (Simulation time: 0 hr 3 min 51 sec) 
Heartbeat CPU 0 instructions: 7000001 cycles: 4165046 heartbeat IPC: 1.80911 cumulative IPC: 1.68065 (Simulation time: 0 hr 4 min 27 sec) 
Heartbeat CPU 0 instructions: 8000000 cycles: 4716412 heartbeat IPC: 1.81368 cumulative IPC: 1.6962 (Simulation time: 0 hr 5 min 5 sec) 
Heartbeat CPU 0 instructions: 9000002 cycles: 5266596 heartbeat IPC: 1.81758 cumulative IPC: 1.70888 (Simulation time: 0 hr 5 min 40 sec) 
Heartbeat CPU 0 instructions: 10000001 cycles: 5819494 heartbeat IPC: 1.80865 cumulative IPC: 1.71836 (Simulation time: 0 hr 6 min 14 sec) 

Warmup complete CPU 0 instructions: 10000001 cycles: 5819494 (Simulation time: 0 hr 6 min 14 sec) 

Heartbeat CPU 0 instructions: 11000003 cycles: 6774501 heartbeat IPC: 1.04711 cumulative IPC: 1.04711 (Simulation time: 0 hr 6 min 48 sec) 
Heartbeat CPU 0 instructions: 12000000 cycles: 7757946 heartbeat IPC: 1.01683 cumulative IPC: 1.03175 (Simulation time: 0 hr 7 min 23 sec) 
Heartbeat CPU 0 instructions: 13000003 cycles: 8742261 heartbeat IPC: 1.01594 cumulative IPC: 1.02643 (Simulation time: 0 hr 8 min 1 sec) 
Heartbeat CPU 0 instructions: 14000002 cycles: 9689167 heartbeat IPC: 1.05607 cumulative IPC: 1.03368 (Simulation time: 0 hr 8 min 34 sec) 
Heartbeat CPU 0 instructions: 15000001 cycles: 10539031 heartbeat IPC: 1.17666 cumulative IPC: 1.05943 (Simulation time: 0 hr 9 min 5 sec) 
Heartbeat CPU 0 instructions: 16000000 cycles: 11387714 heartbeat IPC: 1.1783 cumulative IPC: 1.07754 (Simulation time: 0 hr 9 min 35 sec) 
Heartbeat CPU 0 instructions: 17000002 cycles: 12289846 heartbeat IPC: 1.10849 cumulative IPC: 1.08186 (Simulation time: 0 hr 10 min 7 sec) 
Heartbeat CPU 0 instructions: 18000003 cycles: 13192523 heartbeat IPC: 1.10782 cumulative IPC: 1.08504 (Simulation time: 0 hr 10 min 38 sec) 
Heartbeat CPU 0 instructions: 19000000 cycles: 14079747 heartbeat IPC: 1.12711 cumulative IPC: 1.08955 (Simulation time: 0 hr 11 min 8 sec) 
Heartbeat CPU 0 instructions: 20000000 cycles: 14979799 heartbeat IPC: 1.11105 cumulative IPC: 1.09167 (Simulation time: 0 hr 11 min 40 sec) 
Heartbeat CPU 0 instructions: 21000000 cycles: 15892142 heartbeat IPC: 1.09608 cumulative IPC: 1.09207 (Simulation time: 0 hr 12 min 10 sec) 
Heartbeat CPU 0 instructions: 22000000 cycles: 16823908 heartbeat IPC: 1.07323 cumulative IPC: 1.09047 (Simulation time: 0 hr 12 min 41 sec) 
Heartbeat CPU 0 instructions: 23000003 cycles: 17741920 heartbeat IPC: 1.08931 cumulative IPC: 1.09038 (Simulation time: 0 hr 13 min 13 sec) 
Heartbeat CPU 0 instructions: 24000000 cycles: 18687729 heartbeat IPC: 1.05729 cumulative IPC: 1.08795 (Simulation time: 0 hr 13 min 46 sec) 
Heartbeat CPU 0 instructions: 25000000 cycles: 19681747 heartbeat IPC: 1.00602 cumulative IPC: 1.08208 (Simulation time: 0 hr 14 min 23 sec) 
Heartbeat CPU 0 instructions: 26000003 cycles: 20704582 heartbeat IPC: 0.977678 cumulative IPC: 1.0749 (Simulation time: 0 hr 14 min 58 sec) 
Heartbeat CPU 0 instructions: 27000003 cycles: 21752670 heartbeat IPC: 0.954118 cumulative IPC: 1.06696 (Simulation time: 0 hr 15 min 31 sec) 
Heartbeat CPU 0 instructions: 28000000 cycles: 22827529 heartbeat IPC: 0.930352 cumulative IPC: 1.05832 (Simulation time: 0 hr 16 min 3 sec) 
Heartbeat CPU 0 instructions: 29000003 cycles: 24320115 heartbeat IPC: 0.66998 cumulative IPC: 1.02699 (Simulation time: 0 hr 16 min 39 sec) 
Heartbeat CPU 0 instructions: 30000000 cycles: 25855734 heartbeat IPC: 0.651201 cumulative IPC: 0.998191 (Simulation time: 0 hr 17 min 18 sec) 
Heartbeat CPU 0 instructions: 31000003 cycles: 27584167 heartbeat IPC: 0.57856 cumulative IPC: 0.964866 (Simulation time: 0 hr 17 min 56 sec) 
Heartbeat CPU 0 instructions: 32000000 cycles: 29382180 heartbeat IPC: 0.556168 cumulative IPC: 0.93368 (Simulation time: 0 hr 18 min 38 sec) 
Heartbeat CPU 0 instructions: 33000001 cycles: 30749542 heartbeat IPC: 0.731336 cumulative IPC: 0.922581 (Simulation time: 0 hr 19 min 21 sec) 
Heartbeat CPU 0 instructions: 34000002 cycles: 32197195 heartbeat IPC: 0.690774 cumulative IPC: 0.909859 (Simulation time: 0 hr 20 min 7 sec) 
Heartbeat CPU 0 instructions: 35000001 cycles: 34049264 heartbeat IPC: 0.539936 cumulative IPC: 0.88559 (Simulation time: 0 hr 20 min 54 sec) 
Heartbeat CPU 0 instructions: 36000000 cycles: 34988560 heartbeat IPC: 1.06463 cumulative IPC: 0.891355 (Simulation time: 0 hr 21 min 31 sec) 
Heartbeat CPU 0 instructions: 37000001 cycles: 35896271 heartbeat IPC: 1.10167 cumulative IPC: 0.897703 (Simulation time: 0 hr 22 min 9 sec) 
Heartbeat CPU 0 instructions: 38000003 cycles: 36782651 heartbeat IPC: 1.12819 cumulative IPC: 0.904301 (Simulation time: 0 hr 22 min 45 sec) 
Heartbeat CPU 0 instructions: 39000002 cycles: 37709714 heartbeat IPC: 1.07867 cumulative IPC: 0.90937 (Simulation time: 0 hr 23 min 19 sec) 
Heartbeat CPU 0 instructions: 40000000 cycles: 38610077 heartbeat IPC: 1.11066 cumulative IPC: 0.914897 (Simulation time: 0 hr 23 min 53 sec) 
Heartbeat CPU 0 instructions: 41000000 cycles: 39555833 heartbeat IPC: 1.05736 cumulative IPC: 0.91889 (Simulation time: 0 hr 24 min 29 sec) 
Heartbeat CPU 0 instructions: 42000002 cycles: 40493125 heartbeat IPC: 1.06691 cumulative IPC: 0.922892 (Simulation time: 0 hr 25 min 5 sec) 
Heartbeat CPU 0 instructions: 43000000 cycles: 41446542 heartbeat IPC: 1.04886 cumulative IPC: 0.926262 (Simulation time: 0 hr 25 min 44 sec) 
Heartbeat CPU 0 instructions: 44000000 cycles: 42323361 heartbeat IPC: 1.14049 cumulative IPC: 0.931408 (Simulation time: 0 hr 26 min 16 sec) 
Heartbeat CPU 0 instructions: 45000000 cycles: 43161102 heartbeat IPC: 1.19369 cumulative IPC: 0.937292 (Simulation time: 0 hr 26 min 50 sec) 
Heartbeat CPU 0 instructions: 46000001 cycles: 43989902 heartbeat IPC: 1.20656 cumulative IPC: 0.943139 (Simulation time: 0 hr 27 min 21 sec) 
Heartbeat CPU 0 instructions: 47000001 cycles: 44830013 heartbeat IPC: 1.19032 cumulative IPC: 0.948462 (Simulation time: 0 hr 27 min 55 sec) 
Heartbeat CPU 0 instructions: 48000000 cycles: 45665077 heartbeat IPC: 1.19751 cumulative IPC: 0.953682 (Simulation time: 0 hr 28 min 28 sec) 
Heartbeat CPU 0 instructions: 49000001 cycles: 46519378 heartbeat IPC: 1.17055 cumulative IPC: 0.958234 (Simulation time: 0 hr 29 min 3 sec) 
Heartbeat CPU 0 instructions: 50000002 cycles: 47401063 heartbeat IPC: 1.13419 cumulative IPC: 0.961965 (Simulation time: 0 hr 29 min 37 sec) 
Heartbeat CPU 0 instructions: 51000001 cycles: 48283529 heartbeat IPC: 1.13319 cumulative IPC: 0.965523 (Simulation time: 0 hr 30 min 12 sec) 
Heartbeat CPU 0 instructions: 52000000 cycles: 49239889 heartbeat IPC: 1.04563 cumulative IPC: 0.967287 (Simulation time: 0 hr 30 min 50 sec) 
Heartbeat CPU 0 instructions: 53000002 cycles: 50220051 heartbeat IPC: 1.02024 cumulative IPC: 0.968456 (Simulation time: 0 hr 31 min 28 sec) 
Heartbeat CPU 0 instructions: 54000001 cycles: 51165875 heartbeat IPC: 1.05728 cumulative IPC: 0.970309 (Simulation time: 0 hr 32 min 2 sec) 
Heartbeat CPU 0 instructions: 55000001 cycles: 52107900 heartbeat IPC: 1.06154 cumulative IPC: 0.972166 (Simulation time: 0 hr 32 min 38 sec) 
Heartbeat CPU 0 instructions: 56000000 cycles: 53061951 heartbeat IPC: 1.04816 cumulative IPC: 0.9737 (Simulation time: 0 hr 33 min 16 sec) 
Heartbeat CPU 0 instructions: 57000001 cycles: 54049317 heartbeat IPC: 1.0128 cumulative IPC: 0.974501 (Simulation time: 0 hr 33 min 53 sec) 
Heartbeat CPU 0 instructions: 58000000 cycles: 55045939 heartbeat IPC: 1.00339 cumulative IPC: 0.975086 (Simulation time: 0 hr 34 min 32 sec) 
Heartbeat CPU 0 instructions: 59000001 cycles: 56834020 heartbeat IPC: 0.559259 cumulative IPC: 0.960511 (Simulation time: 0 hr 35 min 16 sec) 
Heartbeat CPU 0 instructions: 60000000 cycles: 58518612 heartbeat IPC: 0.593615 cumulative IPC: 0.948782 (Simulation time: 0 hr 35 min 58 sec) 
Heartbeat CPU 0 instructions: 61000000 cycles: 60288002 heartbeat IPC: 0.565167 cumulative IPC: 0.936321 (Simulation time: 0 hr 36 min 41 sec) 
Heartbeat CPU 0 instructions: 62000000 cycles: 61939422 heartbeat IPC: 0.60554 cumulative IPC: 0.926587 (Simulation time: 0 hr 37 min 26 sec) 
Heartbeat CPU 0 instructions: 63000001 cycles: 63342014 heartbeat IPC: 0.712966 cumulative IPC: 0.921378 (Simulation time: 0 hr 38 min 7 sec) 
Heartbeat CPU 0 instructions: 64000000 cycles: 64861633 heartbeat IPC: 0.658059 cumulative IPC: 0.914601 (Simulation time: 0 hr 38 min 48 sec) 
Heartbeat CPU 0 instructions: 65000003 cycles: 66356458 heartbeat IPC: 0.668977 cumulative IPC: 0.908536 (Simulation time: 0 hr 39 min 29 sec) 
Heartbeat CPU 0 instructions: 66000000 cycles: 67852163 heartbeat IPC: 0.668579 cumulative IPC: 0.90275 (Simulation time: 0 hr 40 min 7 sec) 
Heartbeat CPU 0 instructions: 67000000 cycles: 69346948 heartbeat IPC: 0.668993 cumulative IPC: 0.89725 (Simulation time: 0 hr 40 min 45 sec) 
Heartbeat CPU 0 instructions: 68000000 cycles: 70841407 heartbeat IPC: 0.669138 cumulative IPC: 0.892007 (Simulation time: 0 hr 41 min 25 sec) 
Heartbeat CPU 0 instructions: 69000000 cycles: 72348653 heartbeat IPC: 0.663462 cumulative IPC: 0.886829 (Simulation time: 0 hr 42 min 6 sec) 
Heartbeat CPU 0 instructions: 70000001 cycles: 73845236 heartbeat IPC: 0.668189 cumulative IPC: 0.882019 (Simulation time: 0 hr 42 min 43 sec) 
Heartbeat CPU 0 instructions: 71000001 cycles: 75339302 heartbeat IPC: 0.669315 cumulative IPC: 0.877448 (Simulation time: 0 hr 43 min 19 sec) 
Heartbeat CPU 0 instructions: 72000000 cycles: 76822255 heartbeat IPC: 0.67433 cumulative IPC: 0.873205 (Simulation time: 0 hr 43 min 58 sec) 
Heartbeat CPU 0 instructions: 73000003 cycles: 78309963 heartbeat IPC: 0.672177 cumulative IPC: 0.86908 (Simulation time: 0 hr 44 min 36 sec) 
Heartbeat CPU 0 instructions: 74000000 cycles: 79807492 heartbeat IPC: 0.667765 cumulative IPC: 0.865005 (Simulation time: 0 hr 45 min 12 sec) 
Heartbeat CPU 0 instructions: 75000001 cycles: 81301476 heartbeat IPC: 0.669352 cumulative IPC: 0.861133 (Simulation time: 0 hr 45 min 50 sec) 
Heartbeat CPU 0 instructions: 76000000 cycles: 82797911 heartbeat IPC: 0.668254 cumulative IPC: 0.857383 (Simulation time: 0 hr 46 min 27 sec) 
Heartbeat CPU 0 instructions: 77000003 cycles: 84291832 heartbeat IPC: 0.669381 cumulative IPC: 0.853804 (Simulation time: 0 hr 47 min 7 sec) 
Heartbeat CPU 0 instructions: 78000001 cycles: 85786523 heartbeat IPC: 0.669033 cumulative IPC: 0.85035 (Simulation time: 0 hr 47 min 44 sec) 
Heartbeat CPU 0 instructions: 79000000 cycles: 87283195 heartbeat IPC: 0.668148 cumulative IPC: 0.847003 (Simulation time: 0 hr 48 min 24 sec) 
Heartbeat CPU 0 instructions: 80000000 cycles: 88773579 heartbeat IPC: 0.670968 cumulative IPC: 0.84384 (Simulation time: 0 hr 49 min 3 sec) 
Heartbeat CPU 0 instructions: 81000001 cycles: 90257513 heartbeat IPC: 0.673885 cumulative IPC: 0.840853 (Simulation time: 0 hr 49 min 38 sec) 
Heartbeat CPU 0 instructions: 82000000 cycles: 91740477 heartbeat IPC: 0.674325 cumulative IPC: 0.837979 (Simulation time: 0 hr 50 min 14 sec) 
Heartbeat CPU 0 instructions: 83000000 cycles: 93223939 heartbeat IPC: 0.674099 cumulative IPC: 0.835198 (Simulation time: 0 hr 50 min 49 sec) 
Heartbeat CPU 0 instructions: 84000000 cycles: 94718842 heartbeat IPC: 0.66894 cumulative IPC: 0.832402 (Simulation time: 0 hr 51 min 25 sec) 
Heartbeat CPU 0 instructions: 85000000 cycles: 96213724 heartbeat IPC: 0.668949 cumulative IPC: 0.829699 (Simulation time: 0 hr 51 min 59 sec) 
Heartbeat CPU 0 instructions: 86000000 cycles: 97707815 heartbeat IPC: 0.669303 cumulative IPC: 0.827091 (Simulation time: 0 hr 52 min 34 sec) 
Heartbeat CPU 0 instructions: 87000000 cycles: 99202669 heartbeat IPC: 0.668962 cumulative IPC: 0.82456 (Simulation time: 0 hr 53 min 9 sec) 
Heartbeat CPU 0 instructions: 88000000 cycles: 100698182 heartbeat IPC: 0.668667 cumulative IPC: 0.822102 (Simulation time: 0 hr 53 min 43 sec) 
Heartbeat CPU 0 instructions: 89000002 cycles: 102193811 heartbeat IPC: 0.668616 cumulative IPC: 0.81972 (Simulation time: 0 hr 54 min 19 sec) 
Heartbeat CPU 0 instructions: 90000000 cycles: 103678150 heartbeat IPC: 0.673699 cumulative IPC: 0.817506 (Simulation time: 0 hr 54 min 52 sec) 
Heartbeat CPU 0 instructions: 91000000 cycles: 105161768 heartbeat IPC: 0.674028 cumulative IPC: 0.815363 (Simulation time: 0 hr 55 min 23 sec) 
Heartbeat CPU 0 instructions: 92000000 cycles: 106645853 heartbeat IPC: 0.673816 cumulative IPC: 0.813279 (Simulation time: 0 hr 55 min 57 sec) 
Heartbeat CPU 0 instructions: 93000000 cycles: 108135596 heartbeat IPC: 0.671257 cumulative IPC: 0.811212 (Simulation time: 0 hr 56 min 27 sec) 
Heartbeat CPU 0 instructions: 94000003 cycles: 109629451 heartbeat IPC: 0.669411 cumulative IPC: 0.809171 (Simulation time: 0 hr 56 min 53 sec) 
Heartbeat CPU 0 instructions: 95000000 cycles: 111125640 heartbeat IPC: 0.668363 cumulative IPC: 0.80717 (Simulation time: 1 hr 26 min 18 sec) 
Heartbeat CPU 0 instructions: 96000000 cycles: 112619592 heartbeat IPC: 0.669366 cumulative IPC: 0.805243 (Simulation time: 1 hr 26 min 49 sec) 
Heartbeat CPU 0 instructions: 97000001 cycles: 114115143 heartbeat IPC: 0.668651 cumulative IPC: 0.803356 (Simulation time: 1 hr 27 min 20 sec) 
Heartbeat CPU 0 instructions: 98000003 cycles: 115610502 heartbeat IPC: 0.668737 cumulative IPC: 0.801523 (Simulation time: 1 hr 27 min 50 sec) 
Heartbeat CPU 0 instructions: 99000000 cycles: 117099604 heartbeat IPC: 0.671544 cumulative IPC: 0.799784 (Simulation time: 1 hr 28 min 17 sec) 
Heartbeat CPU 0 instructions: 100000000 cycles: 118582995 heartbeat IPC: 0.674131 cumulative IPC: 0.798131 (Simulation time: 1 hr 28 min 50 sec) 
Heartbeat CPU 0 instructions: 101000000 cycles: 120066203 heartbeat IPC: 0.674214 cumulative IPC: 0.796522 (Simulation time: 1 hr 29 min 20 sec) 
Heartbeat CPU 0 instructions: 102000003 cycles: 121549786 heartbeat IPC: 0.674046 cumulative IPC: 0.794952 (Simulation time: 1 hr 29 min 45 sec) 
Heartbeat CPU 0 instructions: 103000003 cycles: 123046044 heartbeat IPC: 0.668334 cumulative IPC: 0.793336 (Simulation time: 1 hr 30 min 10 sec) 
Heartbeat CPU 0 instructions: 104000000 cycles: 124540575 heartbeat IPC: 0.669104 cumulative IPC: 0.791772 (Simulation time: 1 hr 30 min 35 sec) 
Heartbeat CPU 0 instructions: 105000000 cycles: 126035385 heartbeat IPC: 0.668981 cumulative IPC: 0.790245 (Simulation time: 1 hr 30 min 58 sec) 
Heartbeat CPU 0 instructions: 106000000 cycles: 127530444 heartbeat IPC: 0.66887 cumulative IPC: 0.788754 (Simulation time: 1 hr 31 min 21 sec) 
Heartbeat CPU 0 instructions: 107000000 cycles: 129026285 heartbeat IPC: 0.66852 cumulative IPC: 0.787294 (Simulation time: 1 hr 31 min 42 sec) 
Heartbeat CPU 0 instructions: 108000000 cycles: 130522117 heartbeat IPC: 0.668524 cumulative IPC: 0.78587 (Simulation time: 1 hr 32 min 4 sec) 
Heartbeat CPU 0 instructions: 109000003 cycles: 132004976 heartbeat IPC: 0.674375 cumulative IPC: 0.784559 (Simulation time: 1 hr 32 min 24 sec) 
Heartbeat CPU 0 instructions: 110000001 cycles: 133488171 heartbeat IPC: 0.674219 cumulative IPC: 0.783278 (Simulation time: 1 hr 32 min 44 sec) 
Finished CPU 0 instructions: 100000000 cycles: 127668677 cummulative IPC: 0.783277 (Simulation time: 1 hr 32 min 44 sec) 

ChampSim completed all CPUs

Region of Interest Statistics

CPU 0 cummulative IPC: 0.783277 instructions: 100000000 cycles: 127668677
LLC TOTAL     ACCESS:    1495348  HIT:     473228  MISS:    1022120
LLC LOAD      ACCESS:      89492  HIT:      26929  MISS:      62563
LLC RFO       ACCESS:     219210  HIT:      34729  MISS:     184481
LLC PREFETCH  ACCESS:     750501  HIT:     162986  MISS:     587515
LLC WRITEBACK ACCESS:     436145  HIT:     248584  MISS:     187561
Insertion Distribution: 
	LOAD 3791 0 0 12694 50867 
	RFO 35204 0 0 71201 153179 
	PREF 0 1657 0 116942 633396 
	WRITEBACK 0 0 0 0 241835 
Total Prefetch Downgrades: 3440
