
*** ChampSim Multicore Out-of-Order Simulator ***

Warmup Instructions: 10000000
Simulation Instructions: 100000000
Configuration: 2
Number of CPUs: 1
LLC sets: 2048
LLC ways: 16
Off-chip DRAM Channels: 1 Width: 64-bit Data Rate: 1600 MT/s

CPU 0 runs /datasets/cs240c-wi22-a00-public/data/Assignment2-gz/lbm_94B.trace.gz
CPU 0 L1D next line prefetcher
CPU 0 L2C IP-based stride prefetcher
Initialize SRRIP state
Heartbeat CPU 0 instructions: 1000000 cycles: 422068 heartbeat IPC: 2.36929 cumulative IPC: 2.36929 (Simulation time: 0 hr 0 min 32 sec) 
Heartbeat CPU 0 instructions: 2000000 cycles: 812399 heartbeat IPC: 2.56193 cumulative IPC: 2.46184 (Simulation time: 0 hr 1 min 0 sec) 
Heartbeat CPU 0 instructions: 3000000 cycles: 1211539 heartbeat IPC: 2.50539 cumulative IPC: 2.47619 (Simulation time: 0 hr 1 min 29 sec) 
Heartbeat CPU 0 instructions: 4000000 cycles: 1631525 heartbeat IPC: 2.38103 cumulative IPC: 2.45169 (Simulation time: 0 hr 1 min 59 sec) 
Heartbeat CPU 0 instructions: 5000001 cycles: 2021767 heartbeat IPC: 2.56252 cumulative IPC: 2.47308 (Simulation time: 0 hr 2 min 27 sec) 
Heartbeat CPU 0 instructions: 6000000 cycles: 2422437 heartbeat IPC: 2.49582 cumulative IPC: 2.47684 (Simulation time: 0 hr 2 min 55 sec) 
Heartbeat CPU 0 instructions: 7000001 cycles: 2840579 heartbeat IPC: 2.39153 cumulative IPC: 2.46429 (Simulation time: 0 hr 3 min 27 sec) 
Heartbeat CPU 0 instructions: 8000000 cycles: 3230814 heartbeat IPC: 2.56256 cumulative IPC: 2.47616 (Simulation time: 0 hr 3 min 56 sec) 
Heartbeat CPU 0 instructions: 9000003 cycles: 3631846 heartbeat IPC: 2.49357 cumulative IPC: 2.47808 (Simulation time: 0 hr 4 min 25 sec) 
Heartbeat CPU 0 instructions: 10000000 cycles: 4048420 heartbeat IPC: 2.40053 cumulative IPC: 2.4701 (Simulation time: 0 hr 4 min 55 sec) 

Warmup complete CPU 0 instructions: 10000004 cycles: 4048421 (Simulation time: 0 hr 4 min 55 sec) 

Heartbeat CPU 0 instructions: 11000001 cycles: 5559677 heartbeat IPC: 0.661702 cumulative IPC: 0.661699 (Simulation time: 0 hr 5 min 29 sec) 
Heartbeat CPU 0 instructions: 12000000 cycles: 7183658 heartbeat IPC: 0.61577 cumulative IPC: 0.637909 (Simulation time: 0 hr 6 min 5 sec) 
Heartbeat CPU 0 instructions: 13000000 cycles: 8874464 heartbeat IPC: 0.591434 cumulative IPC: 0.621626 (Simulation time: 0 hr 6 min 41 sec) 
Heartbeat CPU 0 instructions: 14000000 cycles: 10333073 heartbeat IPC: 0.685585 cumulative IPC: 0.636471 (Simulation time: 0 hr 7 min 19 sec) 
Heartbeat CPU 0 instructions: 15000003 cycles: 11908123 heartbeat IPC: 0.634902 cumulative IPC: 0.636156 (Simulation time: 0 hr 7 min 52 sec) 
Heartbeat CPU 0 instructions: 16000000 cycles: 13594075 heartbeat IPC: 0.593135 cumulative IPC: 0.628558 (Simulation time: 0 hr 8 min 28 sec) 
Heartbeat CPU 0 instructions: 17000001 cycles: 15054770 heartbeat IPC: 0.684606 cumulative IPC: 0.635996 (Simulation time: 0 hr 9 min 4 sec) 
Heartbeat CPU 0 instructions: 18000001 cycles: 16617329 heartbeat IPC: 0.639976 cumulative IPC: 0.636491 (Simulation time: 0 hr 9 min 38 sec) 
Heartbeat CPU 0 instructions: 19000000 cycles: 18276442 heartbeat IPC: 0.602731 cumulative IPC: 0.632554 (Simulation time: 0 hr 10 min 15 sec) 
Heartbeat CPU 0 instructions: 20000000 cycles: 19768346 heartbeat IPC: 0.670284 cumulative IPC: 0.636135 (Simulation time: 0 hr 10 min 53 sec) 
Heartbeat CPU 0 instructions: 21000001 cycles: 21298698 heartbeat IPC: 0.653445 cumulative IPC: 0.637671 (Simulation time: 0 hr 11 min 28 sec) 
Heartbeat CPU 0 instructions: 22000000 cycles: 22977087 heartbeat IPC: 0.595809 cumulative IPC: 0.633959 (Simulation time: 0 hr 12 min 4 sec) 
Heartbeat CPU 0 instructions: 23000000 cycles: 24461522 heartbeat IPC: 0.673657 cumulative IPC: 0.636846 (Simulation time: 0 hr 12 min 38 sec) 
Heartbeat CPU 0 instructions: 24000000 cycles: 25976689 heartbeat IPC: 0.659993 cumulative IPC: 0.638445 (Simulation time: 0 hr 13 min 12 sec) 
Heartbeat CPU 0 instructions: 25000000 cycles: 27634971 heartbeat IPC: 0.603034 cumulative IPC: 0.635956 (Simulation time: 0 hr 13 min 50 sec) 
Heartbeat CPU 0 instructions: 26000000 cycles: 29143695 heartbeat IPC: 0.662812 cumulative IPC: 0.63757 (Simulation time: 0 hr 14 min 26 sec) 
Heartbeat CPU 0 instructions: 27000002 cycles: 30663977 heartbeat IPC: 0.657774 cumulative IPC: 0.638724 (Simulation time: 0 hr 14 min 59 sec) 
Heartbeat CPU 0 instructions: 28000000 cycles: 32322823 heartbeat IPC: 0.602827 cumulative IPC: 0.636618 (Simulation time: 0 hr 15 min 39 sec) 
Heartbeat CPU 0 instructions: 29000000 cycles: 33835855 heartbeat IPC: 0.660925 cumulative IPC: 0.637853 (Simulation time: 0 hr 16 min 15 sec) 
Heartbeat CPU 0 instructions: 30000000 cycles: 35391787 heartbeat IPC: 0.642702 cumulative IPC: 0.638093 (Simulation time: 0 hr 16 min 50 sec) 
Heartbeat CPU 0 instructions: 31000001 cycles: 37015534 heartbeat IPC: 0.61586 cumulative IPC: 0.636998 (Simulation time: 0 hr 17 min 27 sec) 
Heartbeat CPU 0 instructions: 32000000 cycles: 38520568 heartbeat IPC: 0.664436 cumulative IPC: 0.638196 (Simulation time: 0 hr 18 min 1 sec) 
Heartbeat CPU 0 instructions: 33000000 cycles: 40058455 heartbeat IPC: 0.650243 cumulative IPC: 0.638711 (Simulation time: 0 hr 18 min 39 sec) 
Heartbeat CPU 0 instructions: 34000003 cycles: 41650277 heartbeat IPC: 0.628213 cumulative IPC: 0.638266 (Simulation time: 0 hr 19 min 16 sec) 
Heartbeat CPU 0 instructions: 35000003 cycles: 43154707 heartbeat IPC: 0.664704 cumulative IPC: 0.639283 (Simulation time: 0 hr 19 min 58 sec) 
Heartbeat CPU 0 instructions: 36000000 cycles: 44706067 heartbeat IPC: 0.644594 cumulative IPC: 0.639486 (Simulation time: 0 hr 20 min 38 sec) 
Heartbeat CPU 0 instructions: 37000003 cycles: 46254926 heartbeat IPC: 0.645639 cumulative IPC: 0.639712 (Simulation time: 0 hr 21 min 22 sec) 
Heartbeat CPU 0 instructions: 38000001 cycles: 47750008 heartbeat IPC: 0.668858 cumulative IPC: 0.640709 (Simulation time: 0 hr 22 min 5 sec) 
Heartbeat CPU 0 instructions: 39000002 cycles: 49262013 heartbeat IPC: 0.661374 cumulative IPC: 0.6414 (Simulation time: 0 hr 22 min 41 sec) 
Heartbeat CPU 0 instructions: 40000000 cycles: 50805609 heartbeat IPC: 0.647837 cumulative IPC: 0.641612 (Simulation time: 0 hr 23 min 15 sec) 
Heartbeat CPU 0 instructions: 41000003 cycles: 52301003 heartbeat IPC: 0.668722 cumulative IPC: 0.642453 (Simulation time: 0 hr 23 min 50 sec) 
Heartbeat CPU 0 instructions: 42000000 cycles: 53742090 heartbeat IPC: 0.693919 cumulative IPC: 0.643945 (Simulation time: 0 hr 24 min 28 sec) 
Heartbeat CPU 0 instructions: 43000001 cycles: 55259371 heartbeat IPC: 0.659074 cumulative IPC: 0.644393 (Simulation time: 0 hr 25 min 15 sec) 
Heartbeat CPU 0 instructions: 44000000 cycles: 56810553 heartbeat IPC: 0.644669 cumulative IPC: 0.644401 (Simulation time: 0 hr 25 min 57 sec) 
Heartbeat CPU 0 instructions: 45000002 cycles: 58262115 heartbeat IPC: 0.688914 cumulative IPC: 0.645593 (Simulation time: 0 hr 26 min 34 sec) 
Heartbeat CPU 0 instructions: 46000003 cycles: 59748086 heartbeat IPC: 0.672961 cumulative IPC: 0.646323 (Simulation time: 0 hr 27 min 13 sec) 
Heartbeat CPU 0 instructions: 47000001 cycles: 61276397 heartbeat IPC: 0.654316 cumulative IPC: 0.646537 (Simulation time: 0 hr 27 min 57 sec) 
Heartbeat CPU 0 instructions: 48000000 cycles: 62771097 heartbeat IPC: 0.66903 cumulative IPC: 0.647109 (Simulation time: 0 hr 28 min 36 sec) 
Heartbeat CPU 0 instructions: 49000000 cycles: 64235182 heartbeat IPC: 0.68302 cumulative IPC: 0.647983 (Simulation time: 0 hr 29 min 17 sec) 
Heartbeat CPU 0 instructions: 50000003 cycles: 65782173 heartbeat IPC: 0.646418 cumulative IPC: 0.647944 (Simulation time: 0 hr 29 min 57 sec) 
Heartbeat CPU 0 instructions: 51000003 cycles: 67273245 heartbeat IPC: 0.670658 cumulative IPC: 0.648479 (Simulation time: 0 hr 30 min 39 sec) 
Heartbeat CPU 0 instructions: 52000000 cycles: 68746610 heartbeat IPC: 0.678716 cumulative IPC: 0.649168 (Simulation time: 0 hr 31 min 18 sec) 
Heartbeat CPU 0 instructions: 53000001 cycles: 70231433 heartbeat IPC: 0.673482 cumulative IPC: 0.649714 (Simulation time: 0 hr 31 min 56 sec) 
Heartbeat CPU 0 instructions: 54000000 cycles: 71731684 heartbeat IPC: 0.666554 cumulative IPC: 0.650087 (Simulation time: 0 hr 32 min 39 sec) 
Heartbeat CPU 0 instructions: 55000003 cycles: 73232522 heartbeat IPC: 0.666296 cumulative IPC: 0.650438 (Simulation time: 0 hr 33 min 15 sec) 
Heartbeat CPU 0 instructions: 56000000 cycles: 74670592 heartbeat IPC: 0.695374 cumulative IPC: 0.651353 (Simulation time: 0 hr 33 min 56 sec) 
Heartbeat CPU 0 instructions: 57000003 cycles: 76105804 heartbeat IPC: 0.696763 cumulative IPC: 0.652258 (Simulation time: 0 hr 34 min 34 sec) 
Heartbeat CPU 0 instructions: 58000003 cycles: 77639422 heartbeat IPC: 0.652053 cumulative IPC: 0.652254 (Simulation time: 0 hr 35 min 11 sec) 
Heartbeat CPU 0 instructions: 59000002 cycles: 79114500 heartbeat IPC: 0.67793 cumulative IPC: 0.652758 (Simulation time: 0 hr 35 min 49 sec) 
Heartbeat CPU 0 instructions: 60000000 cycles: 80497487 heartbeat IPC: 0.723071 cumulative IPC: 0.65403 (Simulation time: 0 hr 36 min 26 sec) 
Heartbeat CPU 0 instructions: 61000000 cycles: 81958433 heartbeat IPC: 0.684488 cumulative IPC: 0.654601 (Simulation time: 0 hr 37 min 2 sec) 
Heartbeat CPU 0 instructions: 62000000 cycles: 83459421 heartbeat IPC: 0.666228 cumulative IPC: 0.654821 (Simulation time: 0 hr 37 min 37 sec) 
Heartbeat CPU 0 instructions: 63000001 cycles: 84930064 heartbeat IPC: 0.679975 cumulative IPC: 0.655278 (Simulation time: 0 hr 38 min 12 sec) 
Heartbeat CPU 0 instructions: 64000000 cycles: 86338777 heartbeat IPC: 0.709867 cumulative IPC: 0.656213 (Simulation time: 0 hr 38 min 48 sec) 
Heartbeat CPU 0 instructions: 65000003 cycles: 87814241 heartbeat IPC: 0.677755 cumulative IPC: 0.656592 (Simulation time: 0 hr 39 min 21 sec) 
Heartbeat CPU 0 instructions: 66000002 cycles: 89325121 heartbeat IPC: 0.661865 cumulative IPC: 0.656686 (Simulation time: 0 hr 39 min 54 sec) 
Heartbeat CPU 0 instructions: 67000002 cycles: 90765872 heartbeat IPC: 0.694082 cumulative IPC: 0.657307 (Simulation time: 0 hr 40 min 27 sec) 
Heartbeat CPU 0 instructions: 68000000 cycles: 92200922 heartbeat IPC: 0.696838 cumulative IPC: 0.657951 (Simulation time: 0 hr 41 min 0 sec) 
Heartbeat CPU 0 instructions: 69000000 cycles: 93676184 heartbeat IPC: 0.677846 cumulative IPC: 0.658278 (Simulation time: 0 hr 41 min 34 sec) 
Heartbeat CPU 0 instructions: 70000001 cycles: 95195218 heartbeat IPC: 0.658314 cumulative IPC: 0.658279 (Simulation time: 0 hr 42 min 10 sec) 
Heartbeat CPU 0 instructions: 71000001 cycles: 96597204 heartbeat IPC: 0.713274 cumulative IPC: 0.659112 (Simulation time: 0 hr 42 min 48 sec) 
Heartbeat CPU 0 instructions: 72000000 cycles: 98040156 heartbeat IPC: 0.693023 cumulative IPC: 0.659632 (Simulation time: 0 hr 43 min 22 sec) 
Heartbeat CPU 0 instructions: 73000001 cycles: 99541174 heartbeat IPC: 0.666215 cumulative IPC: 0.659736 (Simulation time: 0 hr 43 min 56 sec) 
Heartbeat CPU 0 instructions: 74000001 cycles: 100975166 heartbeat IPC: 0.697354 cumulative IPC: 0.660292 (Simulation time: 0 hr 44 min 29 sec) 
Heartbeat CPU 0 instructions: 75000000 cycles: 102394222 heartbeat IPC: 0.704693 cumulative IPC: 0.660933 (Simulation time: 0 hr 45 min 1 sec) 
Heartbeat CPU 0 instructions: 76000000 cycles: 103851268 heartbeat IPC: 0.68632 cumulative IPC: 0.661304 (Simulation time: 0 hr 45 min 35 sec) 
Heartbeat CPU 0 instructions: 77000002 cycles: 105277697 heartbeat IPC: 0.701053 cumulative IPC: 0.661864 (Simulation time: 0 hr 46 min 10 sec) 
Heartbeat CPU 0 instructions: 78000003 cycles: 106685615 heartbeat IPC: 0.710269 cumulative IPC: 0.662528 (Simulation time: 0 hr 46 min 46 sec) 
Heartbeat CPU 0 instructions: 79000000 cycles: 108128762 heartbeat IPC: 0.692928 cumulative IPC: 0.662949 (Simulation time: 0 hr 47 min 21 sec) 
Heartbeat CPU 0 instructions: 80000000 cycles: 109610778 heartbeat IPC: 0.674757 cumulative IPC: 0.663115 (Simulation time: 0 hr 48 min 0 sec) 
Heartbeat CPU 0 instructions: 81000000 cycles: 111012851 heartbeat IPC: 0.71323 cumulative IPC: 0.663772 (Simulation time: 0 hr 48 min 36 sec) 
Heartbeat CPU 0 instructions: 82000000 cycles: 112424791 heartbeat IPC: 0.708245 cumulative IPC: 0.664351 (Simulation time: 0 hr 49 min 9 sec) 
Heartbeat CPU 0 instructions: 83000003 cycles: 113882455 heartbeat IPC: 0.686031 cumulative IPC: 0.664639 (Simulation time: 0 hr 49 min 43 sec) 
Heartbeat CPU 0 instructions: 84000000 cycles: 115296599 heartbeat IPC: 0.707139 cumulative IPC: 0.665179 (Simulation time: 0 hr 50 min 16 sec) 
Heartbeat CPU 0 instructions: 85000001 cycles: 116685075 heartbeat IPC: 0.720215 cumulative IPC: 0.665858 (Simulation time: 0 hr 50 min 47 sec) 
Heartbeat CPU 0 instructions: 86000003 cycles: 118156619 heartbeat IPC: 0.67956 cumulative IPC: 0.666035 (Simulation time: 0 hr 51 min 19 sec) 
Heartbeat CPU 0 instructions: 87000000 cycles: 119584228 heartbeat IPC: 0.70047 cumulative IPC: 0.66646 (Simulation time: 0 hr 51 min 54 sec) 
Heartbeat CPU 0 instructions: 88000000 cycles: 120983758 heartbeat IPC: 0.714526 cumulative IPC: 0.667035 (Simulation time: 0 hr 52 min 25 sec) 
Heartbeat CPU 0 instructions: 89000003 cycles: 122372697 heartbeat IPC: 0.719976 cumulative IPC: 0.667657 (Simulation time: 0 hr 53 min 1 sec) 
Heartbeat CPU 0 instructions: 90000003 cycles: 123807200 heartbeat IPC: 0.697106 cumulative IPC: 0.668009 (Simulation time: 0 hr 53 min 37 sec) 
Heartbeat CPU 0 instructions: 91000002 cycles: 125204447 heartbeat IPC: 0.715692 cumulative IPC: 0.668559 (Simulation time: 0 hr 54 min 8 sec) 
Heartbeat CPU 0 instructions: 92000000 cycles: 126621397 heartbeat IPC: 0.70574 cumulative IPC: 0.668989 (Simulation time: 0 hr 54 min 38 sec) 
Heartbeat CPU 0 instructions: 93000003 cycles: 128045139 heartbeat IPC: 0.702377 cumulative IPC: 0.669373 (Simulation time: 0 hr 55 min 7 sec) 
Heartbeat CPU 0 instructions: 94000001 cycles: 129438584 heartbeat IPC: 0.717644 cumulative IPC: 0.669909 (Simulation time: 0 hr 55 min 36 sec) 
Heartbeat CPU 0 instructions: 95000001 cycles: 130840801 heartbeat IPC: 0.713156 cumulative IPC: 0.670387 (Simulation time: 0 hr 56 min 5 sec) 
Heartbeat CPU 0 instructions: 96000000 cycles: 132230818 heartbeat IPC: 0.719415 cumulative IPC: 0.670919 (Simulation time: 0 hr 56 min 30 sec) 
Heartbeat CPU 0 instructions: 97000000 cycles: 133687900 heartbeat IPC: 0.686303 cumulative IPC: 0.671092 (Simulation time: 0 hr 56 min 54 sec) 
Heartbeat CPU 0 instructions: 98000002 cycles: 135085210 heartbeat IPC: 0.715662 cumulative IPC: 0.671567 (Simulation time: 1 hr 26 min 14 sec) 
Heartbeat CPU 0 instructions: 99000001 cycles: 136470983 heartbeat IPC: 0.721618 cumulative IPC: 0.672091 (Simulation time: 1 hr 26 min 40 sec) 
Heartbeat CPU 0 instructions: 100000000 cycles: 137897964 heartbeat IPC: 0.700779 cumulative IPC: 0.672397 (Simulation time: 1 hr 27 min 5 sec) 
Heartbeat CPU 0 instructions: 101000003 cycles: 139288748 heartbeat IPC: 0.719021 cumulative IPC: 0.672876 (Simulation time: 1 hr 27 min 29 sec) 
Heartbeat CPU 0 instructions: 102000002 cycles: 140698487 heartbeat IPC: 0.70935 cumulative IPC: 0.673253 (Simulation time: 1 hr 27 min 51 sec) 
Heartbeat CPU 0 instructions: 103000000 cycles: 142149559 heartbeat IPC: 0.689144 cumulative IPC: 0.673419 (Simulation time: 1 hr 28 min 15 sec) 
Heartbeat CPU 0 instructions: 104000000 cycles: 143548757 heartbeat IPC: 0.714695 cumulative IPC: 0.673833 (Simulation time: 1 hr 28 min 36 sec) 
Heartbeat CPU 0 instructions: 105000002 cycles: 144947963 heartbeat IPC: 0.714692 cumulative IPC: 0.674239 (Simulation time: 1 hr 28 min 56 sec) 
Heartbeat CPU 0 instructions: 106000001 cycles: 146339548 heartbeat IPC: 0.718604 cumulative IPC: 0.674673 (Simulation time: 1 hr 29 min 17 sec) 
Heartbeat CPU 0 instructions: 107000000 cycles: 147780512 heartbeat IPC: 0.693979 cumulative IPC: 0.674867 (Simulation time: 1 hr 29 min 37 sec) 
Heartbeat CPU 0 instructions: 108000000 cycles: 149186842 heartbeat IPC: 0.711071 cumulative IPC: 0.675217 (Simulation time: 1 hr 29 min 58 sec) 
Heartbeat CPU 0 instructions: 109000002 cycles: 150573635 heartbeat IPC: 0.72109 cumulative IPC: 0.675652 (Simulation time: 1 hr 30 min 18 sec) 
Heartbeat CPU 0 instructions: 110000000 cycles: 152013729 heartbeat IPC: 0.694398 cumulative IPC: 0.675834 (Simulation time: 1 hr 30 min 37 sec) 
Finished CPU 0 instructions: 100000000 cycles: 147965309 cummulative IPC: 0.675834 (Simulation time: 1 hr 30 min 37 sec) 

ChampSim completed all CPUs

Region of Interest Statistics

CPU 0 cummulative IPC: 0.675834 instructions: 100000000 cycles: 147965309
LLC TOTAL     ACCESS:    5491580  HIT:    1363841  MISS:    4127739
LLC LOAD      ACCESS:     390715  HIT:      15706  MISS:     375009
LLC RFO       ACCESS:    2345835  HIT:     403326  MISS:    1942509
LLC PREFETCH  ACCESS:     408861  HIT:      20312  MISS:     388549
LLC WRITEBACK ACCESS:    2346169  HIT:     924497  MISS:    1421672
Insertion Distribution: 
	LOAD 0 0 0 2697 407455 
	RFO 221769 0 0 294081 1647074 
	PREF 0 6359 0 51956 380894 
	WRITEBACK 0 0 0 0 1549739 
Total Prefetch Downgrades: 15611
