
*** ChampSim Multicore Out-of-Order Simulator ***

Warmup Instructions: 10000000
Simulation Instructions: 100000000
Configuration: 2
Number of CPUs: 1
LLC sets: 2048
LLC ways: 16
Off-chip DRAM Channels: 1 Width: 64-bit Data Rate: 1600 MT/s

CPU 0 runs /datasets/cs240c-wi22-a00-public/data/Assignment2-gz/omnetpp_17B.trace.gz
CPU 0 L1D next line prefetcher
CPU 0 L2C IP-based stride prefetcher
Initialize SRRIP state
Heartbeat CPU 0 instructions: 1000000 cycles: 559549 heartbeat IPC: 1.78715 cumulative IPC: 1.78715 (Simulation time: 0 hr 0 min 29 sec) 
Heartbeat CPU 0 instructions: 2000002 cycles: 1133688 heartbeat IPC: 1.74174 cumulative IPC: 1.76416 (Simulation time: 0 hr 0 min 57 sec) 
Heartbeat CPU 0 instructions: 3000001 cycles: 1768996 heartbeat IPC: 1.57404 cumulative IPC: 1.69588 (Simulation time: 0 hr 1 min 24 sec) 
Heartbeat CPU 0 instructions: 4000000 cycles: 2333938 heartbeat IPC: 1.77009 cumulative IPC: 1.71384 (Simulation time: 0 hr 1 min 52 sec) 
Heartbeat CPU 0 instructions: 5000002 cycles: 2892959 heartbeat IPC: 1.78885 cumulative IPC: 1.72833 (Simulation time: 0 hr 2 min 20 sec) 
Heartbeat CPU 0 instructions: 6000000 cycles: 3471395 heartbeat IPC: 1.7288 cumulative IPC: 1.72841 (Simulation time: 0 hr 2 min 47 sec) 
Heartbeat CPU 0 instructions: 7000000 cycles: 4035816 heartbeat IPC: 1.77173 cumulative IPC: 1.73447 (Simulation time: 0 hr 3 min 12 sec) 
Heartbeat CPU 0 instructions: 8000000 cycles: 4697550 heartbeat IPC: 1.51118 cumulative IPC: 1.70302 (Simulation time: 0 hr 3 min 38 sec) 
Heartbeat CPU 0 instructions: 9000000 cycles: 5359355 heartbeat IPC: 1.51102 cumulative IPC: 1.67931 (Simulation time: 0 hr 4 min 1 sec) 
Heartbeat CPU 0 instructions: 10000001 cycles: 6020924 heartbeat IPC: 1.51156 cumulative IPC: 1.66087 (Simulation time: 0 hr 4 min 26 sec) 

Warmup complete CPU 0 instructions: 10000001 cycles: 6020924 (Simulation time: 0 hr 4 min 26 sec) 

Heartbeat CPU 0 instructions: 11000001 cycles: 7065720 heartbeat IPC: 0.957125 cumulative IPC: 0.957125 (Simulation time: 0 hr 4 min 52 sec) 
Heartbeat CPU 0 instructions: 12000000 cycles: 8110263 heartbeat IPC: 0.957355 cumulative IPC: 0.95724 (Simulation time: 0 hr 5 min 16 sec) 
Heartbeat CPU 0 instructions: 13000000 cycles: 9180175 heartbeat IPC: 0.934656 cumulative IPC: 0.949592 (Simulation time: 0 hr 5 min 43 sec) 
Heartbeat CPU 0 instructions: 14000001 cycles: 10224426 heartbeat IPC: 0.957625 cumulative IPC: 0.951587 (Simulation time: 0 hr 6 min 9 sec) 
Heartbeat CPU 0 instructions: 15000000 cycles: 11268634 heartbeat IPC: 0.957663 cumulative IPC: 0.952796 (Simulation time: 0 hr 6 min 36 sec) 
Heartbeat CPU 0 instructions: 16000000 cycles: 12312671 heartbeat IPC: 0.95782 cumulative IPC: 0.95363 (Simulation time: 0 hr 7 min 3 sec) 
Heartbeat CPU 0 instructions: 17000000 cycles: 13358208 heartbeat IPC: 0.956446 cumulative IPC: 0.954031 (Simulation time: 0 hr 7 min 29 sec) 
Heartbeat CPU 0 instructions: 18000001 cycles: 14399532 heartbeat IPC: 0.960317 cumulative IPC: 0.954813 (Simulation time: 0 hr 7 min 57 sec) 
Heartbeat CPU 0 instructions: 19000002 cycles: 15434157 heartbeat IPC: 0.966535 cumulative IPC: 0.956101 (Simulation time: 0 hr 8 min 24 sec) 
Heartbeat CPU 0 instructions: 20000000 cycles: 18677793 heartbeat IPC: 0.308295 cumulative IPC: 0.790085 (Simulation time: 0 hr 8 min 57 sec) 
Heartbeat CPU 0 instructions: 21000000 cycles: 21084622 heartbeat IPC: 0.415484 cumulative IPC: 0.730232 (Simulation time: 0 hr 9 min 27 sec) 
Heartbeat CPU 0 instructions: 22000002 cycles: 22927841 heartbeat IPC: 0.54253 cumulative IPC: 0.709769 (Simulation time: 0 hr 9 min 55 sec) 
Heartbeat CPU 0 instructions: 23000000 cycles: 26141910 heartbeat IPC: 0.311131 cumulative IPC: 0.646092 (Simulation time: 0 hr 10 min 27 sec) 
Heartbeat CPU 0 instructions: 24000000 cycles: 29393482 heartbeat IPC: 0.307544 cumulative IPC: 0.598993 (Simulation time: 0 hr 11 min 5 sec) 
Heartbeat CPU 0 instructions: 25000001 cycles: 31984960 heartbeat IPC: 0.385881 cumulative IPC: 0.577722 (Simulation time: 0 hr 11 min 35 sec) 
Heartbeat CPU 0 instructions: 26000001 cycles: 33646249 heartbeat IPC: 0.601942 cumulative IPC: 0.579179 (Simulation time: 0 hr 12 min 2 sec) 
Heartbeat CPU 0 instructions: 27000000 cycles: 36847668 heartbeat IPC: 0.312361 cumulative IPC: 0.551469 (Simulation time: 0 hr 12 min 33 sec) 
Heartbeat CPU 0 instructions: 28000000 cycles: 40041895 heartbeat IPC: 0.313065 cumulative IPC: 0.529085 (Simulation time: 0 hr 13 min 4 sec) 
Heartbeat CPU 0 instructions: 29000000 cycles: 42777650 heartbeat IPC: 0.36553 cumulative IPC: 0.516912 (Simulation time: 0 hr 13 min 34 sec) 
Heartbeat CPU 0 instructions: 30000000 cycles: 44266253 heartbeat IPC: 0.671771 cumulative IPC: 0.52294 (Simulation time: 0 hr 14 min 1 sec) 
Heartbeat CPU 0 instructions: 31000000 cycles: 47451626 heartbeat IPC: 0.313935 cumulative IPC: 0.50687 (Simulation time: 0 hr 14 min 33 sec) 
Heartbeat CPU 0 instructions: 32000000 cycles: 50635653 heartbeat IPC: 0.314068 cumulative IPC: 0.493111 (Simulation time: 0 hr 15 min 5 sec) 
Heartbeat CPU 0 instructions: 33000001 cycles: 53553265 heartbeat IPC: 0.342746 cumulative IPC: 0.483881 (Simulation time: 0 hr 15 min 35 sec) 
Heartbeat CPU 0 instructions: 34000000 cycles: 54848976 heartbeat IPC: 0.771776 cumulative IPC: 0.491521 (Simulation time: 0 hr 15 min 58 sec) 
Heartbeat CPU 0 instructions: 35000003 cycles: 58022030 heartbeat IPC: 0.315155 cumulative IPC: 0.480759 (Simulation time: 0 hr 16 min 28 sec) 
Heartbeat CPU 0 instructions: 36000000 cycles: 61250591 heartbeat IPC: 0.309735 cumulative IPC: 0.470761 (Simulation time: 0 hr 17 min 1 sec) 
Heartbeat CPU 0 instructions: 37000001 cycles: 64063320 heartbeat IPC: 0.355527 cumulative IPC: 0.465177 (Simulation time: 0 hr 17 min 33 sec) 
Heartbeat CPU 0 instructions: 38000000 cycles: 65473166 heartbeat IPC: 0.709297 cumulative IPC: 0.470966 (Simulation time: 0 hr 18 min 0 sec) 
Heartbeat CPU 0 instructions: 39000000 cycles: 68651852 heartbeat IPC: 0.314595 cumulative IPC: 0.46303 (Simulation time: 0 hr 18 min 36 sec) 
Heartbeat CPU 0 instructions: 40000000 cycles: 71839706 heartbeat IPC: 0.313691 cumulative IPC: 0.455797 (Simulation time: 0 hr 19 min 15 sec) 
Heartbeat CPU 0 instructions: 41000002 cycles: 74552178 heartbeat IPC: 0.368668 cumulative IPC: 0.452348 (Simulation time: 0 hr 19 min 49 sec) 
Heartbeat CPU 0 instructions: 42000000 cycles: 76061762 heartbeat IPC: 0.662433 cumulative IPC: 0.456876 (Simulation time: 0 hr 20 min 21 sec) 
Heartbeat CPU 0 instructions: 43000003 cycles: 81303376 heartbeat IPC: 0.190782 cumulative IPC: 0.438349 (Simulation time: 0 hr 21 min 6 sec) 
Heartbeat CPU 0 instructions: 44000000 cycles: 82349925 heartbeat IPC: 0.955519 cumulative IPC: 0.44544 (Simulation time: 0 hr 21 min 33 sec) 
Heartbeat CPU 0 instructions: 45000003 cycles: 83392705 heartbeat IPC: 0.958978 cumulative IPC: 0.452361 (Simulation time: 0 hr 21 min 59 sec) 
Heartbeat CPU 0 instructions: 46000001 cycles: 84435772 heartbeat IPC: 0.958709 cumulative IPC: 0.459097 (Simulation time: 0 hr 22 min 28 sec) 
Heartbeat CPU 0 instructions: 47000001 cycles: 85480307 heartbeat IPC: 0.957364 cumulative IPC: 0.465647 (Simulation time: 0 hr 22 min 51 sec) 
Heartbeat CPU 0 instructions: 48000000 cycles: 86523485 heartbeat IPC: 0.958608 cumulative IPC: 0.472035 (Simulation time: 0 hr 23 min 17 sec) 
Heartbeat CPU 0 instructions: 49000000 cycles: 87565291 heartbeat IPC: 0.959872 cumulative IPC: 0.478267 (Simulation time: 0 hr 23 min 50 sec) 
Heartbeat CPU 0 instructions: 50000000 cycles: 88608079 heartbeat IPC: 0.958968 cumulative IPC: 0.484337 (Simulation time: 0 hr 24 min 15 sec) 
Heartbeat CPU 0 instructions: 51000002 cycles: 89650967 heartbeat IPC: 0.958878 cumulative IPC: 0.490254 (Simulation time: 0 hr 24 min 43 sec) 
Heartbeat CPU 0 instructions: 52000000 cycles: 90695206 heartbeat IPC: 0.957633 cumulative IPC: 0.496018 (Simulation time: 0 hr 25 min 15 sec) 
Heartbeat CPU 0 instructions: 53000001 cycles: 91737678 heartbeat IPC: 0.959259 cumulative IPC: 0.501652 (Simulation time: 0 hr 25 min 45 sec) 
Heartbeat CPU 0 instructions: 54000002 cycles: 92805783 heartbeat IPC: 0.936238 cumulative IPC: 0.507001 (Simulation time: 0 hr 26 min 11 sec) 
Heartbeat CPU 0 instructions: 55000003 cycles: 93846058 heartbeat IPC: 0.961285 cumulative IPC: 0.512382 (Simulation time: 0 hr 26 min 41 sec) 
Heartbeat CPU 0 instructions: 56000000 cycles: 96043133 heartbeat IPC: 0.455149 cumulative IPC: 0.510985 (Simulation time: 0 hr 27 min 15 sec) 
Heartbeat CPU 0 instructions: 57000003 cycles: 98057571 heartbeat IPC: 0.496418 cumulative IPC: 0.510666 (Simulation time: 0 hr 27 min 48 sec) 
Heartbeat CPU 0 instructions: 58000000 cycles: 101257020 heartbeat IPC: 0.312553 cumulative IPC: 0.504011 (Simulation time: 0 hr 28 min 24 sec) 
Heartbeat CPU 0 instructions: 59000003 cycles: 104458405 heartbeat IPC: 0.312366 cumulative IPC: 0.497778 (Simulation time: 0 hr 29 min 0 sec) 
Heartbeat CPU 0 instructions: 60000000 cycles: 106810601 heartbeat IPC: 0.425133 cumulative IPC: 0.496083 (Simulation time: 0 hr 29 min 35 sec) 
Heartbeat CPU 0 instructions: 61000001 cycles: 108677383 heartbeat IPC: 0.535682 cumulative IPC: 0.496803 (Simulation time: 0 hr 30 min 9 sec) 
Heartbeat CPU 0 instructions: 62000001 cycles: 111855029 heartbeat IPC: 0.314698 cumulative IPC: 0.491335 (Simulation time: 0 hr 30 min 46 sec) 
Heartbeat CPU 0 instructions: 63000000 cycles: 115043548 heartbeat IPC: 0.313625 cumulative IPC: 0.486138 (Simulation time: 0 hr 31 min 25 sec) 
Heartbeat CPU 0 instructions: 64000000 cycles: 117552709 heartbeat IPC: 0.39854 cumulative IPC: 0.484167 (Simulation time: 0 hr 31 min 59 sec) 
Heartbeat CPU 0 instructions: 65000000 cycles: 119258404 heartbeat IPC: 0.586271 cumulative IPC: 0.485705 (Simulation time: 0 hr 32 min 31 sec) 
Heartbeat CPU 0 instructions: 66000000 cycles: 122446967 heartbeat IPC: 0.313621 cumulative IPC: 0.480992 (Simulation time: 0 hr 33 min 7 sec) 
Heartbeat CPU 0 instructions: 67000001 cycles: 125643873 heartbeat IPC: 0.312803 cumulative IPC: 0.476497 (Simulation time: 0 hr 33 min 43 sec) 
Heartbeat CPU 0 instructions: 68000000 cycles: 128335265 heartbeat IPC: 0.371555 cumulative IPC: 0.474188 (Simulation time: 0 hr 34 min 15 sec) 
Heartbeat CPU 0 instructions: 69000001 cycles: 129859921 heartbeat IPC: 0.655886 cumulative IPC: 0.476425 (Simulation time: 0 hr 34 min 44 sec) 
Heartbeat CPU 0 instructions: 70000001 cycles: 133031129 heartbeat IPC: 0.315337 cumulative IPC: 0.472403 (Simulation time: 0 hr 35 min 16 sec) 
Heartbeat CPU 0 instructions: 71000001 cycles: 136224906 heartbeat IPC: 0.313109 cumulative IPC: 0.468496 (Simulation time: 0 hr 35 min 52 sec) 
Heartbeat CPU 0 instructions: 72000000 cycles: 138930894 heartbeat IPC: 0.36955 cumulative IPC: 0.466481 (Simulation time: 0 hr 36 min 24 sec) 
Heartbeat CPU 0 instructions: 73000000 cycles: 140467437 heartbeat IPC: 0.650812 cumulative IPC: 0.468588 (Simulation time: 0 hr 36 min 55 sec) 
Heartbeat CPU 0 instructions: 74000003 cycles: 143666658 heartbeat IPC: 0.312577 cumulative IPC: 0.464962 (Simulation time: 0 hr 37 min 26 sec) 
Heartbeat CPU 0 instructions: 75000001 cycles: 146866265 heartbeat IPC: 0.312538 cumulative IPC: 0.461499 (Simulation time: 0 hr 37 min 57 sec) 
Heartbeat CPU 0 instructions: 76000000 cycles: 149463330 heartbeat IPC: 0.38505 cumulative IPC: 0.460115 (Simulation time: 0 hr 38 min 26 sec) 
Heartbeat CPU 0 instructions: 77000001 cycles: 151097460 heartbeat IPC: 0.611947 cumulative IPC: 0.461825 (Simulation time: 0 hr 38 min 54 sec) 
Heartbeat CPU 0 instructions: 78000000 cycles: 154280285 heartbeat IPC: 0.314186 cumulative IPC: 0.458656 (Simulation time: 0 hr 39 min 24 sec) 
Heartbeat CPU 0 instructions: 79000000 cycles: 157631234 heartbeat IPC: 0.298423 cumulative IPC: 0.455114 (Simulation time: 0 hr 39 min 58 sec) 
Heartbeat CPU 0 instructions: 80000000 cycles: 159443008 heartbeat IPC: 0.551945 cumulative IPC: 0.456258 (Simulation time: 0 hr 40 min 26 sec) 
Heartbeat CPU 0 instructions: 81000001 cycles: 161846119 heartbeat IPC: 0.416128 cumulative IPC: 0.455639 (Simulation time: 0 hr 40 min 55 sec) 
Heartbeat CPU 0 instructions: 82000000 cycles: 165040687 heartbeat IPC: 0.313031 cumulative IPC: 0.452774 (Simulation time: 0 hr 41 min 27 sec) 
Heartbeat CPU 0 instructions: 83000000 cycles: 168233860 heartbeat IPC: 0.313168 cumulative IPC: 0.450026 (Simulation time: 0 hr 41 min 59 sec) 
Heartbeat CPU 0 instructions: 84000000 cycles: 170014595 heartbeat IPC: 0.561566 cumulative IPC: 0.451237 (Simulation time: 0 hr 42 min 25 sec) 
Heartbeat CPU 0 instructions: 85000003 cycles: 172436409 heartbeat IPC: 0.412915 cumulative IPC: 0.450679 (Simulation time: 0 hr 42 min 56 sec) 
Heartbeat CPU 0 instructions: 86000001 cycles: 175628855 heartbeat IPC: 0.313239 cumulative IPC: 0.448092 (Simulation time: 0 hr 43 min 27 sec) 
Heartbeat CPU 0 instructions: 87000000 cycles: 178817426 heartbeat IPC: 0.31362 cumulative IPC: 0.445611 (Simulation time: 0 hr 43 min 58 sec) 
Heartbeat CPU 0 instructions: 88000000 cycles: 180460084 heartbeat IPC: 0.608769 cumulative IPC: 0.447147 (Simulation time: 0 hr 44 min 24 sec) 
Heartbeat CPU 0 instructions: 89000000 cycles: 185082154 heartbeat IPC: 0.216353 cumulative IPC: 0.44119 (Simulation time: 0 hr 44 min 58 sec) 
Heartbeat CPU 0 instructions: 90000002 cycles: 186125598 heartbeat IPC: 0.958367 cumulative IPC: 0.444186 (Simulation time: 0 hr 45 min 21 sec) 
Heartbeat CPU 0 instructions: 91000001 cycles: 187169806 heartbeat IPC: 0.957663 cumulative IPC: 0.447146 (Simulation time: 0 hr 45 min 46 sec) 
Heartbeat CPU 0 instructions: 92000000 cycles: 188213377 heartbeat IPC: 0.958247 cumulative IPC: 0.450074 (Simulation time: 0 hr 46 min 12 sec) 
Heartbeat CPU 0 instructions: 93000002 cycles: 189257642 heartbeat IPC: 0.957613 cumulative IPC: 0.452966 (Simulation time: 0 hr 46 min 36 sec) 
Heartbeat CPU 0 instructions: 94000001 cycles: 190301470 heartbeat IPC: 0.958011 cumulative IPC: 0.455827 (Simulation time: 0 hr 46 min 58 sec) 
Heartbeat CPU 0 instructions: 95000000 cycles: 191345734 heartbeat IPC: 0.957611 cumulative IPC: 0.458654 (Simulation time: 0 hr 47 min 22 sec) 
Heartbeat CPU 0 instructions: 96000000 cycles: 192390529 heartbeat IPC: 0.957126 cumulative IPC: 0.461449 (Simulation time: 0 hr 47 min 46 sec) 
Heartbeat CPU 0 instructions: 97000002 cycles: 193461381 heartbeat IPC: 0.933838 cumulative IPC: 0.464147 (Simulation time: 0 hr 48 min 11 sec) 
Heartbeat CPU 0 instructions: 98000000 cycles: 194507009 heartbeat IPC: 0.956361 cumulative IPC: 0.466878 (Simulation time: 0 hr 48 min 35 sec) 
Heartbeat CPU 0 instructions: 99000003 cycles: 195545326 heartbeat IPC: 0.9631 cumulative IPC: 0.469597 (Simulation time: 0 hr 49 min 0 sec) 
Heartbeat CPU 0 instructions: 100000000 cycles: 196581780 heartbeat IPC: 0.964825 cumulative IPC: 0.47229 (Simulation time: 0 hr 49 min 27 sec) 
Heartbeat CPU 0 instructions: 101000001 cycles: 197622923 heartbeat IPC: 0.960484 cumulative IPC: 0.474943 (Simulation time: 0 hr 49 min 52 sec) 
Heartbeat CPU 0 instructions: 102000001 cycles: 200766338 heartbeat IPC: 0.318125 cumulative IPC: 0.472412 (Simulation time: 0 hr 50 min 23 sec) 
Heartbeat CPU 0 instructions: 103000001 cycles: 202151182 heartbeat IPC: 0.722103 cumulative IPC: 0.474175 (Simulation time: 0 hr 50 min 48 sec) 
Heartbeat CPU 0 instructions: 104000000 cycles: 205039405 heartbeat IPC: 0.346233 cumulative IPC: 0.472318 (Simulation time: 0 hr 51 min 17 sec) 
Heartbeat CPU 0 instructions: 105000000 cycles: 208228938 heartbeat IPC: 0.313526 cumulative IPC: 0.469813 (Simulation time: 0 hr 51 min 46 sec) 
Heartbeat CPU 0 instructions: 106000000 cycles: 211358639 heartbeat IPC: 0.319519 cumulative IPC: 0.467522 (Simulation time: 0 hr 52 min 14 sec) 
Heartbeat CPU 0 instructions: 107000001 cycles: 212893025 heartbeat IPC: 0.651727 cumulative IPC: 0.468889 (Simulation time: 0 hr 52 min 37 sec) 
Heartbeat CPU 0 instructions: 108000000 cycles: 215627715 heartbeat IPC: 0.365672 cumulative IPC: 0.467542 (Simulation time: 0 hr 53 min 5 sec) 
Heartbeat CPU 0 instructions: 109000000 cycles: 218815374 heartbeat IPC: 0.31371 cumulative IPC: 0.465238 (Simulation time: 0 hr 53 min 36 sec) 
Heartbeat CPU 0 instructions: 110000000 cycles: 221991492 heartbeat IPC: 0.31485 cumulative IPC: 0.463026 (Simulation time: 0 hr 54 min 5 sec) 
Finished CPU 0 instructions: 100000003 cycles: 215970573 cummulative IPC: 0.463026 (Simulation time: 0 hr 54 min 5 sec) 

ChampSim completed all CPUs

Region of Interest Statistics

CPU 0 cummulative IPC: 0.463026 instructions: 100000003 cycles: 215970573
LLC TOTAL     ACCESS:    3283144  HIT:    1546907  MISS:    1736237
LLC LOAD      ACCESS:    1563226  HIT:    1384070  MISS:     179156
LLC RFO       ACCESS:       5220  HIT:       2649  MISS:       2571
LLC PREFETCH  ACCESS:    1697850  HIT:     151811  MISS:    1546039
LLC WRITEBACK ACCESS:      16848  HIT:       8377  MISS:       8471
Insertion Distribution: 
	LOAD 11765 0 0 38477 219109 
	RFO 0 0 0 812 2081 
	PREF 0 63 0 44484 1652105 
	WRITEBACK 0 0 0 0 8624 
Total Prefetch Downgrades: 1362
