
*** ChampSim Multicore Out-of-Order Simulator ***

Warmup Instructions: 10000000
Simulation Instructions: 100000000
Configuration: 2
Number of CPUs: 1
LLC sets: 2048
LLC ways: 16
Off-chip DRAM Channels: 1 Width: 64-bit Data Rate: 1600 MT/s

CPU 0 runs /datasets/cs240c-wi22-a00-public/data/Assignment2-gz/omnetpp_4B.trace.gz
CPU 0 L1D next line prefetcher
CPU 0 L2C IP-based stride prefetcher
Initialize SRRIP state
Heartbeat CPU 0 instructions: 1000001 cycles: 566984 heartbeat IPC: 1.76372 cumulative IPC: 1.76372 (Simulation time: 0 hr 0 min 37 sec) 
Heartbeat CPU 0 instructions: 2000001 cycles: 1135714 heartbeat IPC: 1.7583 cumulative IPC: 1.76101 (Simulation time: 0 hr 1 min 16 sec) 
Heartbeat CPU 0 instructions: 3000001 cycles: 1722947 heartbeat IPC: 1.7029 cumulative IPC: 1.7412 (Simulation time: 0 hr 2 min 0 sec) 
Heartbeat CPU 0 instructions: 4000000 cycles: 2292434 heartbeat IPC: 1.75596 cumulative IPC: 1.74487 (Simulation time: 0 hr 2 min 38 sec) 
Heartbeat CPU 0 instructions: 5000000 cycles: 2866649 heartbeat IPC: 1.74151 cumulative IPC: 1.7442 (Simulation time: 0 hr 3 min 14 sec) 
Heartbeat CPU 0 instructions: 6000000 cycles: 3442825 heartbeat IPC: 1.73558 cumulative IPC: 1.74275 (Simulation time: 0 hr 3 min 52 sec) 
Heartbeat CPU 0 instructions: 7000000 cycles: 4012149 heartbeat IPC: 1.75647 cumulative IPC: 1.7447 (Simulation time: 0 hr 4 min 30 sec) 
Heartbeat CPU 0 instructions: 8000000 cycles: 4565619 heartbeat IPC: 1.80678 cumulative IPC: 1.75223 (Simulation time: 0 hr 5 min 8 sec) 
Heartbeat CPU 0 instructions: 9000001 cycles: 5147702 heartbeat IPC: 1.71797 cumulative IPC: 1.74835 (Simulation time: 0 hr 5 min 47 sec) 
Heartbeat CPU 0 instructions: 10000000 cycles: 5701668 heartbeat IPC: 1.80516 cumulative IPC: 1.75387 (Simulation time: 0 hr 6 min 26 sec) 

Warmup complete CPU 0 instructions: 10000003 cycles: 5701669 (Simulation time: 0 hr 6 min 26 sec) 

Heartbeat CPU 0 instructions: 11000000 cycles: 8874006 heartbeat IPC: 0.315225 cumulative IPC: 0.315224 (Simulation time: 0 hr 7 min 13 sec) 
Heartbeat CPU 0 instructions: 12000000 cycles: 10029196 heartbeat IPC: 0.865658 cumulative IPC: 0.462157 (Simulation time: 0 hr 7 min 46 sec) 
Heartbeat CPU 0 instructions: 13000003 cycles: 11174154 heartbeat IPC: 0.873397 cumulative IPC: 0.548197 (Simulation time: 0 hr 8 min 17 sec) 
Heartbeat CPU 0 instructions: 14000000 cycles: 12294422 heartbeat IPC: 0.892641 cumulative IPC: 0.606726 (Simulation time: 0 hr 8 min 48 sec) 
Heartbeat CPU 0 instructions: 15000000 cycles: 13433649 heartbeat IPC: 0.877788 cumulative IPC: 0.646665 (Simulation time: 0 hr 9 min 22 sec) 
Heartbeat CPU 0 instructions: 16000000 cycles: 16269449 heartbeat IPC: 0.352634 cumulative IPC: 0.567763 (Simulation time: 0 hr 10 min 4 sec) 
Heartbeat CPU 0 instructions: 17000003 cycles: 19123522 heartbeat IPC: 0.350378 cumulative IPC: 0.521538 (Simulation time: 0 hr 10 min 47 sec) 
Heartbeat CPU 0 instructions: 18000002 cycles: 21930087 heartbeat IPC: 0.356307 cumulative IPC: 0.492962 (Simulation time: 0 hr 11 min 30 sec) 
Heartbeat CPU 0 instructions: 19000002 cycles: 24739572 heartbeat IPC: 0.355937 cumulative IPC: 0.472741 (Simulation time: 0 hr 12 min 5 sec) 
Heartbeat CPU 0 instructions: 20000000 cycles: 28070899 heartbeat IPC: 0.30018 cumulative IPC: 0.447043 (Simulation time: 0 hr 12 min 41 sec) 
Heartbeat CPU 0 instructions: 21000000 cycles: 31380758 heartbeat IPC: 0.302128 cumulative IPC: 0.428364 (Simulation time: 0 hr 13 min 20 sec) 
Heartbeat CPU 0 instructions: 22000001 cycles: 34569059 heartbeat IPC: 0.313647 cumulative IPC: 0.415694 (Simulation time: 0 hr 13 min 56 sec) 
Heartbeat CPU 0 instructions: 23000000 cycles: 37405593 heartbeat IPC: 0.352543 cumulative IPC: 0.410044 (Simulation time: 0 hr 14 min 35 sec) 
Heartbeat CPU 0 instructions: 24000000 cycles: 40208140 heartbeat IPC: 0.356818 cumulative IPC: 0.405721 (Simulation time: 0 hr 15 min 19 sec) 
Heartbeat CPU 0 instructions: 25000000 cycles: 42992612 heartbeat IPC: 0.359135 cumulative IPC: 0.402242 (Simulation time: 0 hr 15 min 56 sec) 
Heartbeat CPU 0 instructions: 26000002 cycles: 45759974 heartbeat IPC: 0.361356 cumulative IPC: 0.399418 (Simulation time: 0 hr 16 min 36 sec) 
Heartbeat CPU 0 instructions: 27000001 cycles: 48568911 heartbeat IPC: 0.356006 cumulative IPC: 0.396573 (Simulation time: 0 hr 17 min 13 sec) 
Heartbeat CPU 0 instructions: 28000000 cycles: 51326443 heartbeat IPC: 0.362643 cumulative IPC: 0.394522 (Simulation time: 0 hr 17 min 52 sec) 
Heartbeat CPU 0 instructions: 29000001 cycles: 54166786 heartbeat IPC: 0.352071 cumulative IPC: 0.392035 (Simulation time: 0 hr 18 min 28 sec) 
Heartbeat CPU 0 instructions: 30000000 cycles: 56975865 heartbeat IPC: 0.355988 cumulative IPC: 0.39006 (Simulation time: 0 hr 19 min 4 sec) 
Heartbeat CPU 0 instructions: 31000002 cycles: 59759383 heartbeat IPC: 0.359258 cumulative IPC: 0.388474 (Simulation time: 0 hr 19 min 40 sec) 
Heartbeat CPU 0 instructions: 32000000 cycles: 62581375 heartbeat IPC: 0.354359 cumulative IPC: 0.386781 (Simulation time: 0 hr 20 min 18 sec) 
Heartbeat CPU 0 instructions: 33000000 cycles: 65740441 heartbeat IPC: 0.316549 cumulative IPC: 0.383086 (Simulation time: 0 hr 21 min 0 sec) 
Heartbeat CPU 0 instructions: 34000001 cycles: 69052458 heartbeat IPC: 0.301931 cumulative IPC: 0.378843 (Simulation time: 0 hr 21 min 39 sec) 
Heartbeat CPU 0 instructions: 35000001 cycles: 72079895 heartbeat IPC: 0.330312 cumulative IPC: 0.37663 (Simulation time: 0 hr 22 min 16 sec) 
Heartbeat CPU 0 instructions: 36000000 cycles: 75355533 heartbeat IPC: 0.305284 cumulative IPC: 0.373274 (Simulation time: 0 hr 22 min 50 sec) 
Heartbeat CPU 0 instructions: 37000001 cycles: 78141473 heartbeat IPC: 0.358946 cumulative IPC: 0.372723 (Simulation time: 0 hr 23 min 24 sec) 
Heartbeat CPU 0 instructions: 38000001 cycles: 81318979 heartbeat IPC: 0.314712 cumulative IPC: 0.370286 (Simulation time: 0 hr 23 min 59 sec) 
Heartbeat CPU 0 instructions: 39000001 cycles: 83835503 heartbeat IPC: 0.397374 cumulative IPC: 0.371158 (Simulation time: 0 hr 24 min 31 sec) 
Heartbeat CPU 0 instructions: 40000000 cycles: 84957678 heartbeat IPC: 0.891126 cumulative IPC: 0.37852 (Simulation time: 0 hr 24 min 57 sec) 
Heartbeat CPU 0 instructions: 41000001 cycles: 86083942 heartbeat IPC: 0.887892 cumulative IPC: 0.385657 (Simulation time: 0 hr 25 min 29 sec) 
Heartbeat CPU 0 instructions: 42000001 cycles: 87218263 heartbeat IPC: 0.881585 cumulative IPC: 0.392558 (Simulation time: 0 hr 25 min 59 sec) 
Heartbeat CPU 0 instructions: 43000002 cycles: 88434147 heartbeat IPC: 0.822448 cumulative IPC: 0.398876 (Simulation time: 0 hr 26 min 26 sec) 
Heartbeat CPU 0 instructions: 44000000 cycles: 91345144 heartbeat IPC: 0.343524 cumulative IPC: 0.396995 (Simulation time: 0 hr 27 min 10 sec) 
Heartbeat CPU 0 instructions: 45000000 cycles: 94230015 heartbeat IPC: 0.346636 cumulative IPC: 0.395354 (Simulation time: 0 hr 27 min 49 sec) 
Heartbeat CPU 0 instructions: 46000000 cycles: 97586714 heartbeat IPC: 0.297912 cumulative IPC: 0.391794 (Simulation time: 0 hr 28 min 33 sec) 
Heartbeat CPU 0 instructions: 47000000 cycles: 100913153 heartbeat IPC: 0.300622 cumulative IPC: 0.388609 (Simulation time: 0 hr 29 min 10 sec) 
Heartbeat CPU 0 instructions: 48000000 cycles: 104065424 heartbeat IPC: 0.317232 cumulative IPC: 0.386321 (Simulation time: 0 hr 29 min 51 sec) 
Heartbeat CPU 0 instructions: 49000000 cycles: 106970224 heartbeat IPC: 0.344258 cumulative IPC: 0.385115 (Simulation time: 0 hr 30 min 28 sec) 
Heartbeat CPU 0 instructions: 50000001 cycles: 109774573 heartbeat IPC: 0.356589 cumulative IPC: 0.384346 (Simulation time: 0 hr 31 min 1 sec) 
Heartbeat CPU 0 instructions: 51000003 cycles: 112579365 heartbeat IPC: 0.356533 cumulative IPC: 0.383616 (Simulation time: 0 hr 31 min 37 sec) 
Heartbeat CPU 0 instructions: 52000000 cycles: 115365136 heartbeat IPC: 0.358966 cumulative IPC: 0.38299 (Simulation time: 0 hr 32 min 8 sec) 
Heartbeat CPU 0 instructions: 53000003 cycles: 118156969 heartbeat IPC: 0.358189 cumulative IPC: 0.382374 (Simulation time: 0 hr 32 min 41 sec) 
Heartbeat CPU 0 instructions: 54000001 cycles: 120916808 heartbeat IPC: 0.362339 cumulative IPC: 0.381894 (Simulation time: 0 hr 33 min 15 sec) 
Heartbeat CPU 0 instructions: 55000001 cycles: 123845467 heartbeat IPC: 0.341453 cumulative IPC: 0.380892 (Simulation time: 0 hr 33 min 56 sec) 
Heartbeat CPU 0 instructions: 56000000 cycles: 126639147 heartbeat IPC: 0.35795 cumulative IPC: 0.380362 (Simulation time: 0 hr 34 min 34 sec) 
Heartbeat CPU 0 instructions: 57000003 cycles: 129406585 heartbeat IPC: 0.361346 cumulative IPC: 0.379936 (Simulation time: 0 hr 35 min 4 sec) 
Heartbeat CPU 0 instructions: 58000001 cycles: 132382055 heartbeat IPC: 0.336081 cumulative IPC: 0.378906 (Simulation time: 0 hr 35 min 38 sec) 
Heartbeat CPU 0 instructions: 59000001 cycles: 135660527 heartbeat IPC: 0.30502 cumulative IPC: 0.377042 (Simulation time: 0 hr 36 min 12 sec) 
Heartbeat CPU 0 instructions: 60000000 cycles: 138634860 heartbeat IPC: 0.33621 cumulative IPC: 0.376129 (Simulation time: 0 hr 36 min 47 sec) 
Heartbeat CPU 0 instructions: 61000001 cycles: 141679111 heartbeat IPC: 0.328488 cumulative IPC: 0.375062 (Simulation time: 0 hr 37 min 24 sec) 
Heartbeat CPU 0 instructions: 62000000 cycles: 145042580 heartbeat IPC: 0.297312 cumulative IPC: 0.373185 (Simulation time: 0 hr 38 min 7 sec) 
Heartbeat CPU 0 instructions: 63000001 cycles: 147873129 heartbeat IPC: 0.353289 cumulative IPC: 0.372789 (Simulation time: 0 hr 38 min 44 sec) 
Heartbeat CPU 0 instructions: 64000000 cycles: 150667362 heartbeat IPC: 0.35788 cumulative IPC: 0.372502 (Simulation time: 0 hr 39 min 19 sec) 
Heartbeat CPU 0 instructions: 65000001 cycles: 153451435 heartbeat IPC: 0.359186 cumulative IPC: 0.372251 (Simulation time: 0 hr 39 min 53 sec) 
Heartbeat CPU 0 instructions: 66000002 cycles: 157575201 heartbeat IPC: 0.242497 cumulative IPC: 0.368728 (Simulation time: 0 hr 40 min 31 sec) 
Heartbeat CPU 0 instructions: 67000001 cycles: 159231335 heartbeat IPC: 0.603815 cumulative IPC: 0.371264 (Simulation time: 0 hr 40 min 59 sec) 
Heartbeat CPU 0 instructions: 68000000 cycles: 160355684 heartbeat IPC: 0.889403 cumulative IPC: 0.375031 (Simulation time: 0 hr 41 min 28 sec) 
Heartbeat CPU 0 instructions: 69000003 cycles: 161497828 heartbeat IPC: 0.875549 cumulative IPC: 0.3787 (Simulation time: 0 hr 41 min 55 sec) 
Heartbeat CPU 0 instructions: 70000000 cycles: 162618259 heartbeat IPC: 0.892511 cumulative IPC: 0.382369 (Simulation time: 0 hr 42 min 25 sec) 
Heartbeat CPU 0 instructions: 71000001 cycles: 163794175 heartbeat IPC: 0.850402 cumulative IPC: 0.38585 (Simulation time: 0 hr 42 min 56 sec) 
Heartbeat CPU 0 instructions: 72000000 cycles: 167140863 heartbeat IPC: 0.298803 cumulative IPC: 0.384046 (Simulation time: 0 hr 43 min 29 sec) 
Heartbeat CPU 0 instructions: 73000000 cycles: 170538997 heartbeat IPC: 0.294279 cumulative IPC: 0.382195 (Simulation time: 0 hr 44 min 6 sec) 
Heartbeat CPU 0 instructions: 74000001 cycles: 173876297 heartbeat IPC: 0.299644 cumulative IPC: 0.380557 (Simulation time: 0 hr 44 min 47 sec) 
Heartbeat CPU 0 instructions: 75000001 cycles: 176779205 heartbeat IPC: 0.344482 cumulative IPC: 0.379945 (Simulation time: 0 hr 45 min 22 sec) 
Heartbeat CPU 0 instructions: 76000000 cycles: 179570042 heartbeat IPC: 0.358315 cumulative IPC: 0.379597 (Simulation time: 0 hr 45 min 55 sec) 
Heartbeat CPU 0 instructions: 77000000 cycles: 182381685 heartbeat IPC: 0.355664 cumulative IPC: 0.379217 (Simulation time: 0 hr 46 min 29 sec) 
Heartbeat CPU 0 instructions: 78000001 cycles: 185194666 heartbeat IPC: 0.355495 cumulative IPC: 0.378845 (Simulation time: 0 hr 47 min 0 sec) 
Heartbeat CPU 0 instructions: 79000001 cycles: 187993243 heartbeat IPC: 0.357324 cumulative IPC: 0.378514 (Simulation time: 0 hr 47 min 35 sec) 
Heartbeat CPU 0 instructions: 80000000 cycles: 190770437 heartbeat IPC: 0.360075 cumulative IPC: 0.378238 (Simulation time: 0 hr 48 min 10 sec) 
Heartbeat CPU 0 instructions: 81000002 cycles: 193624948 heartbeat IPC: 0.350323 cumulative IPC: 0.377814 (Simulation time: 0 hr 48 min 45 sec) 
Heartbeat CPU 0 instructions: 82000001 cycles: 196442227 heartbeat IPC: 0.354952 cumulative IPC: 0.377476 (Simulation time: 0 hr 49 min 24 sec) 
Heartbeat CPU 0 instructions: 83000002 cycles: 199292793 heartbeat IPC: 0.350808 cumulative IPC: 0.377083 (Simulation time: 0 hr 50 min 1 sec) 
Heartbeat CPU 0 instructions: 84000000 cycles: 202152249 heartbeat IPC: 0.349716 cumulative IPC: 0.376685 (Simulation time: 0 hr 50 min 37 sec) 
Heartbeat CPU 0 instructions: 85000002 cycles: 205462966 heartbeat IPC: 0.30205 cumulative IPC: 0.375448 (Simulation time: 0 hr 51 min 12 sec) 
Heartbeat CPU 0 instructions: 86000002 cycles: 208783413 heartbeat IPC: 0.301164 cumulative IPC: 0.374234 (Simulation time: 0 hr 51 min 43 sec) 
Heartbeat CPU 0 instructions: 87000000 cycles: 211824606 heartbeat IPC: 0.328818 cumulative IPC: 0.373563 (Simulation time: 0 hr 52 min 15 sec) 
Heartbeat CPU 0 instructions: 88000000 cycles: 214847649 heartbeat IPC: 0.330793 cumulative IPC: 0.372945 (Simulation time: 0 hr 52 min 48 sec) 
Heartbeat CPU 0 instructions: 89000002 cycles: 217934356 heartbeat IPC: 0.32397 cumulative IPC: 0.372233 (Simulation time: 0 hr 53 min 21 sec) 
Heartbeat CPU 0 instructions: 90000001 cycles: 220711156 heartbeat IPC: 0.360126 cumulative IPC: 0.372077 (Simulation time: 0 hr 53 min 53 sec) 
Heartbeat CPU 0 instructions: 91000001 cycles: 223519704 heartbeat IPC: 0.356056 cumulative IPC: 0.37187 (Simulation time: 0 hr 54 min 23 sec) 
Heartbeat CPU 0 instructions: 92000000 cycles: 226414222 heartbeat IPC: 0.34548 cumulative IPC: 0.371524 (Simulation time: 0 hr 54 min 54 sec) 
Heartbeat CPU 0 instructions: 93000000 cycles: 229277164 heartbeat IPC: 0.349291 cumulative IPC: 0.371239 (Simulation time: 0 hr 55 min 22 sec) 
Heartbeat CPU 0 instructions: 94000000 cycles: 233802402 heartbeat IPC: 0.220983 cumulative IPC: 0.368258 (Simulation time: 0 hr 55 min 58 sec) 
Heartbeat CPU 0 instructions: 95000000 cycles: 234986248 heartbeat IPC: 0.844704 cumulative IPC: 0.370718 (Simulation time: 0 hr 56 min 25 sec) 
Heartbeat CPU 0 instructions: 96000000 cycles: 236129228 heartbeat IPC: 0.874906 cumulative IPC: 0.373219 (Simulation time: 0 hr 56 min 57 sec) 
Heartbeat CPU 0 instructions: 97000002 cycles: 237247903 heartbeat IPC: 0.893916 cumulative IPC: 0.375735 (Simulation time: 0 hr 57 min 22 sec) 
Heartbeat CPU 0 instructions: 98000001 cycles: 238389845 heartbeat IPC: 0.8757 cumulative IPC: 0.378189 (Simulation time: 0 hr 57 min 51 sec) 
Heartbeat CPU 0 instructions: 99000002 cycles: 240260707 heartbeat IPC: 0.534513 cumulative IPC: 0.379435 (Simulation time: 0 hr 58 min 16 sec) 
Heartbeat CPU 0 instructions: 100000000 cycles: 243641971 heartbeat IPC: 0.295747 cumulative IPC: 0.378246 (Simulation time: 0 hr 58 min 51 sec) 
Heartbeat CPU 0 instructions: 101000002 cycles: 246743834 heartbeat IPC: 0.322388 cumulative IPC: 0.377527 (Simulation time: 0 hr 59 min 19 sec) 
Heartbeat CPU 0 instructions: 102000001 cycles: 249751694 heartbeat IPC: 0.332462 cumulative IPC: 0.376972 (Simulation time: 0 hr 59 min 46 sec) 
Heartbeat CPU 0 instructions: 103000000 cycles: 252552185 heartbeat IPC: 0.35708 cumulative IPC: 0.376746 (Simulation time: 1 hr 0 min 11 sec) 
Heartbeat CPU 0 instructions: 104000000 cycles: 255364602 heartbeat IPC: 0.355566 cumulative IPC: 0.376508 (Simulation time: 1 hr 0 min 37 sec) 
Heartbeat CPU 0 instructions: 105000001 cycles: 258159712 heartbeat IPC: 0.357768 cumulative IPC: 0.3763 (Simulation time: 1 hr 1 min 0 sec) 
Heartbeat CPU 0 instructions: 106000000 cycles: 261055870 heartbeat IPC: 0.345285 cumulative IPC: 0.375948 (Simulation time: 1 hr 1 min 27 sec) 
Heartbeat CPU 0 instructions: 107000002 cycles: 263913297 heartbeat IPC: 0.349966 cumulative IPC: 0.375661 (Simulation time: 1 hr 1 min 49 sec) 
Heartbeat CPU 0 instructions: 108000000 cycles: 266727619 heartbeat IPC: 0.355325 cumulative IPC: 0.375442 (Simulation time: 1 hr 2 min 16 sec) 
Heartbeat CPU 0 instructions: 109000002 cycles: 269530691 heartbeat IPC: 0.356752 cumulative IPC: 0.375243 (Simulation time: 1 hr 2 min 42 sec) 
Heartbeat CPU 0 instructions: 110000001 cycles: 272368121 heartbeat IPC: 0.352431 cumulative IPC: 0.375 (Simulation time: 1 hr 3 min 11 sec) 
Finished CPU 0 instructions: 100000001 cycles: 266666454 cummulative IPC: 0.375 (Simulation time: 1 hr 3 min 11 sec) 

ChampSim completed all CPUs

Region of Interest Statistics

CPU 0 cummulative IPC: 0.375 instructions: 100000001 cycles: 266666454
LLC TOTAL     ACCESS:    4665097  HIT:    2426296  MISS:    2238801
LLC LOAD      ACCESS:    2183334  HIT:    2036634  MISS:     146700
LLC RFO       ACCESS:      24960  HIT:      12127  MISS:      12833
LLC PREFETCH  ACCESS:    2376434  HIT:     314172  MISS:    2062262
LLC WRITEBACK ACCESS:      80369  HIT:      63363  MISS:      17006
Insertion Distribution: 
	LOAD 46586 0 89960 88222 
	RFO 3552 0 4551 6371 
	PREF 0 12755 72874 2181287 
	WRITEBACK 0 0 0 17841 
Total Prefetch Downgrades: 14588
