
*** ChampSim Multicore Out-of-Order Simulator ***

Warmup Instructions: 10000000
Simulation Instructions: 100000000
Configuration: 2
Number of CPUs: 1
LLC sets: 2048
LLC ways: 16
Off-chip DRAM Channels: 1 Width: 64-bit Data Rate: 1600 MT/s

CPU 0 runs /datasets/cs240c-wi22-a00-public/data/Assignment2-gz/gcc_39B.trace.gz
CPU 0 L1D next line prefetcher
CPU 0 L2C IP-based stride prefetcher
Initialize SRRIP state
Heartbeat CPU 0 instructions: 1000000 cycles: 510415 heartbeat IPC: 1.95919 cumulative IPC: 1.95919 (Simulation time: 0 hr 0 min 38 sec) 
Heartbeat CPU 0 instructions: 2000002 cycles: 1020477 heartbeat IPC: 1.96055 cumulative IPC: 1.95987 (Simulation time: 0 hr 1 min 17 sec) 
Heartbeat CPU 0 instructions: 3000002 cycles: 1529254 heartbeat IPC: 1.9655 cumulative IPC: 1.96174 (Simulation time: 0 hr 1 min 57 sec) 
Heartbeat CPU 0 instructions: 4000000 cycles: 2038229 heartbeat IPC: 1.96473 cumulative IPC: 1.96249 (Simulation time: 0 hr 2 min 36 sec) 
Heartbeat CPU 0 instructions: 5000003 cycles: 2547014 heartbeat IPC: 1.96547 cumulative IPC: 1.96308 (Simulation time: 0 hr 3 min 16 sec) 
Heartbeat CPU 0 instructions: 6000000 cycles: 3057390 heartbeat IPC: 1.95933 cumulative IPC: 1.96246 (Simulation time: 0 hr 3 min 51 sec) 
Heartbeat CPU 0 instructions: 7000001 cycles: 3565359 heartbeat IPC: 1.96863 cumulative IPC: 1.96334 (Simulation time: 0 hr 4 min 26 sec) 
Heartbeat CPU 0 instructions: 8000000 cycles: 4078805 heartbeat IPC: 1.94762 cumulative IPC: 1.96136 (Simulation time: 0 hr 5 min 8 sec) 
Heartbeat CPU 0 instructions: 9000002 cycles: 4590941 heartbeat IPC: 1.95261 cumulative IPC: 1.96038 (Simulation time: 0 hr 5 min 50 sec) 
Heartbeat CPU 0 instructions: 10000000 cycles: 5101490 heartbeat IPC: 1.95867 cumulative IPC: 1.96021 (Simulation time: 0 hr 6 min 32 sec) 

Warmup complete CPU 0 instructions: 10000004 cycles: 5101491 (Simulation time: 0 hr 6 min 32 sec) 

Heartbeat CPU 0 instructions: 11000002 cycles: 6484209 heartbeat IPC: 0.723214 cumulative IPC: 0.723212 (Simulation time: 0 hr 7 min 16 sec) 
Heartbeat CPU 0 instructions: 12000000 cycles: 7868654 heartbeat IPC: 0.72231 cumulative IPC: 0.72276 (Simulation time: 0 hr 8 min 1 sec) 
Heartbeat CPU 0 instructions: 13000003 cycles: 9247940 heartbeat IPC: 0.725015 cumulative IPC: 0.72351 (Simulation time: 0 hr 8 min 47 sec) 
Heartbeat CPU 0 instructions: 14000003 cycles: 10633531 heartbeat IPC: 0.721714 cumulative IPC: 0.72306 (Simulation time: 0 hr 9 min 32 sec) 
Heartbeat CPU 0 instructions: 15000001 cycles: 12017173 heartbeat IPC: 0.722729 cumulative IPC: 0.722994 (Simulation time: 0 hr 10 min 17 sec) 
Heartbeat CPU 0 instructions: 16000000 cycles: 13401229 heartbeat IPC: 0.722513 cumulative IPC: 0.722914 (Simulation time: 0 hr 11 min 0 sec) 
Heartbeat CPU 0 instructions: 17000000 cycles: 14786622 heartbeat IPC: 0.721817 cumulative IPC: 0.722757 (Simulation time: 0 hr 11 min 43 sec) 
Heartbeat CPU 0 instructions: 18000000 cycles: 16171826 heartbeat IPC: 0.721915 cumulative IPC: 0.722652 (Simulation time: 0 hr 12 min 28 sec) 
Heartbeat CPU 0 instructions: 19000001 cycles: 17550356 heartbeat IPC: 0.725411 cumulative IPC: 0.722957 (Simulation time: 0 hr 13 min 5 sec) 
Heartbeat CPU 0 instructions: 20000000 cycles: 18928948 heartbeat IPC: 0.725377 cumulative IPC: 0.723198 (Simulation time: 0 hr 13 min 45 sec) 
Heartbeat CPU 0 instructions: 21000001 cycles: 20326028 heartbeat IPC: 0.715779 cumulative IPC: 0.722518 (Simulation time: 0 hr 14 min 23 sec) 
Heartbeat CPU 0 instructions: 22000003 cycles: 21714813 heartbeat IPC: 0.720055 cumulative IPC: 0.722312 (Simulation time: 0 hr 15 min 3 sec) 
Heartbeat CPU 0 instructions: 23000003 cycles: 23096705 heartbeat IPC: 0.723646 cumulative IPC: 0.722414 (Simulation time: 0 hr 15 min 41 sec) 
Heartbeat CPU 0 instructions: 24000000 cycles: 24477562 heartbeat IPC: 0.724186 cumulative IPC: 0.72254 (Simulation time: 0 hr 16 min 20 sec) 
Heartbeat CPU 0 instructions: 25000002 cycles: 25848636 heartbeat IPC: 0.729357 cumulative IPC: 0.722991 (Simulation time: 0 hr 16 min 58 sec) 
Heartbeat CPU 0 instructions: 26000001 cycles: 27223999 heartbeat IPC: 0.72708 cumulative IPC: 0.723245 (Simulation time: 0 hr 17 min 40 sec) 
Heartbeat CPU 0 instructions: 27000000 cycles: 28594868 heartbeat IPC: 0.729464 cumulative IPC: 0.723608 (Simulation time: 0 hr 18 min 18 sec) 
Heartbeat CPU 0 instructions: 28000000 cycles: 29967462 heartbeat IPC: 0.728548 cumulative IPC: 0.723881 (Simulation time: 0 hr 19 min 5 sec) 
Heartbeat CPU 0 instructions: 29000001 cycles: 31330786 heartbeat IPC: 0.733502 cumulative IPC: 0.724381 (Simulation time: 0 hr 19 min 51 sec) 
Heartbeat CPU 0 instructions: 30000003 cycles: 32703045 heartbeat IPC: 0.728727 cumulative IPC: 0.724597 (Simulation time: 0 hr 20 min 31 sec) 
Heartbeat CPU 0 instructions: 31000003 cycles: 34091149 heartbeat IPC: 0.720407 cumulative IPC: 0.724396 (Simulation time: 0 hr 21 min 15 sec) 
Heartbeat CPU 0 instructions: 32000000 cycles: 35466325 heartbeat IPC: 0.727177 cumulative IPC: 0.724522 (Simulation time: 0 hr 22 min 2 sec) 
Heartbeat CPU 0 instructions: 33000002 cycles: 36850213 heartbeat IPC: 0.722603 cumulative IPC: 0.724439 (Simulation time: 0 hr 22 min 45 sec) 
Heartbeat CPU 0 instructions: 34000001 cycles: 38231280 heartbeat IPC: 0.724077 cumulative IPC: 0.724423 (Simulation time: 0 hr 23 min 27 sec) 
Heartbeat CPU 0 instructions: 35000001 cycles: 39611817 heartbeat IPC: 0.724356 cumulative IPC: 0.724421 (Simulation time: 0 hr 24 min 9 sec) 
Heartbeat CPU 0 instructions: 36000000 cycles: 40991452 heartbeat IPC: 0.724829 cumulative IPC: 0.724436 (Simulation time: 0 hr 24 min 49 sec) 
Heartbeat CPU 0 instructions: 37000000 cycles: 42373617 heartbeat IPC: 0.723503 cumulative IPC: 0.724402 (Simulation time: 0 hr 25 min 30 sec) 
Heartbeat CPU 0 instructions: 38000001 cycles: 43755404 heartbeat IPC: 0.723701 cumulative IPC: 0.724377 (Simulation time: 0 hr 26 min 7 sec) 
Heartbeat CPU 0 instructions: 39000000 cycles: 45132573 heartbeat IPC: 0.726127 cumulative IPC: 0.724437 (Simulation time: 0 hr 26 min 48 sec) 
Heartbeat CPU 0 instructions: 40000000 cycles: 46514990 heartbeat IPC: 0.723371 cumulative IPC: 0.724401 (Simulation time: 0 hr 27 min 36 sec) 
Heartbeat CPU 0 instructions: 41000000 cycles: 47896108 heartbeat IPC: 0.724051 cumulative IPC: 0.72439 (Simulation time: 0 hr 28 min 14 sec) 
Heartbeat CPU 0 instructions: 42000001 cycles: 49273938 heartbeat IPC: 0.72578 cumulative IPC: 0.724433 (Simulation time: 0 hr 28 min 52 sec) 
Heartbeat CPU 0 instructions: 43000002 cycles: 50659247 heartbeat IPC: 0.721861 cumulative IPC: 0.724355 (Simulation time: 0 hr 29 min 31 sec) 
Heartbeat CPU 0 instructions: 44000000 cycles: 52057788 heartbeat IPC: 0.715029 cumulative IPC: 0.724077 (Simulation time: 0 hr 30 min 10 sec) 
Heartbeat CPU 0 instructions: 45000000 cycles: 53436128 heartbeat IPC: 0.72551 cumulative IPC: 0.724118 (Simulation time: 0 hr 30 min 49 sec) 
Heartbeat CPU 0 instructions: 46000002 cycles: 54818234 heartbeat IPC: 0.723535 cumulative IPC: 0.724102 (Simulation time: 0 hr 31 min 27 sec) 
Heartbeat CPU 0 instructions: 47000000 cycles: 56202792 heartbeat IPC: 0.722251 cumulative IPC: 0.724052 (Simulation time: 0 hr 32 min 7 sec) 
Heartbeat CPU 0 instructions: 48000000 cycles: 57557534 heartbeat IPC: 0.738148 cumulative IPC: 0.724416 (Simulation time: 0 hr 32 min 50 sec) 
Heartbeat CPU 0 instructions: 49000000 cycles: 58925353 heartbeat IPC: 0.731091 cumulative IPC: 0.724586 (Simulation time: 0 hr 33 min 30 sec) 
Heartbeat CPU 0 instructions: 50000000 cycles: 60319125 heartbeat IPC: 0.717477 cumulative IPC: 0.724406 (Simulation time: 0 hr 34 min 16 sec) 
Heartbeat CPU 0 instructions: 51000000 cycles: 61690287 heartbeat IPC: 0.729308 cumulative IPC: 0.724525 (Simulation time: 0 hr 35 min 1 sec) 
Heartbeat CPU 0 instructions: 52000000 cycles: 63071738 heartbeat IPC: 0.723877 cumulative IPC: 0.72451 (Simulation time: 0 hr 35 min 45 sec) 
Heartbeat CPU 0 instructions: 53000003 cycles: 64449175 heartbeat IPC: 0.725988 cumulative IPC: 0.724544 (Simulation time: 0 hr 36 min 25 sec) 
Heartbeat CPU 0 instructions: 54000000 cycles: 65829480 heartbeat IPC: 0.724475 cumulative IPC: 0.724542 (Simulation time: 0 hr 37 min 11 sec) 
Heartbeat CPU 0 instructions: 55000002 cycles: 67208642 heartbeat IPC: 0.725079 cumulative IPC: 0.724554 (Simulation time: 0 hr 37 min 55 sec) 
Heartbeat CPU 0 instructions: 56000000 cycles: 68586684 heartbeat IPC: 0.725666 cumulative IPC: 0.724578 (Simulation time: 0 hr 38 min 40 sec) 
Heartbeat CPU 0 instructions: 57000000 cycles: 69969763 heartbeat IPC: 0.723024 cumulative IPC: 0.724545 (Simulation time: 0 hr 39 min 22 sec) 
Heartbeat CPU 0 instructions: 58000000 cycles: 71352869 heartbeat IPC: 0.72301 cumulative IPC: 0.724513 (Simulation time: 0 hr 40 min 1 sec) 
Heartbeat CPU 0 instructions: 59000000 cycles: 72735822 heartbeat IPC: 0.72309 cumulative IPC: 0.724484 (Simulation time: 0 hr 40 min 52 sec) 
Heartbeat CPU 0 instructions: 60000000 cycles: 74117786 heartbeat IPC: 0.723608 cumulative IPC: 0.724467 (Simulation time: 0 hr 41 min 39 sec) 
Heartbeat CPU 0 instructions: 61000000 cycles: 75497176 heartbeat IPC: 0.724958 cumulative IPC: 0.724476 (Simulation time: 0 hr 42 min 18 sec) 
Heartbeat CPU 0 instructions: 62000000 cycles: 76881174 heartbeat IPC: 0.722544 cumulative IPC: 0.724439 (Simulation time: 0 hr 43 min 4 sec) 
Heartbeat CPU 0 instructions: 63000001 cycles: 78269460 heartbeat IPC: 0.720313 cumulative IPC: 0.724361 (Simulation time: 0 hr 43 min 45 sec) 
Heartbeat CPU 0 instructions: 64000000 cycles: 79660507 heartbeat IPC: 0.718882 cumulative IPC: 0.724258 (Simulation time: 0 hr 44 min 28 sec) 
Heartbeat CPU 0 instructions: 65000000 cycles: 81033944 heartbeat IPC: 0.7281 cumulative IPC: 0.724328 (Simulation time: 0 hr 45 min 13 sec) 
Heartbeat CPU 0 instructions: 66000001 cycles: 82418726 heartbeat IPC: 0.722136 cumulative IPC: 0.724289 (Simulation time: 0 hr 45 min 56 sec) 
Heartbeat CPU 0 instructions: 67000001 cycles: 83786342 heartbeat IPC: 0.731199 cumulative IPC: 0.724409 (Simulation time: 0 hr 46 min 45 sec) 
Heartbeat CPU 0 instructions: 68000000 cycles: 85151596 heartbeat IPC: 0.732464 cumulative IPC: 0.724546 (Simulation time: 0 hr 47 min 31 sec) 
Heartbeat CPU 0 instructions: 69000000 cycles: 86537114 heartbeat IPC: 0.721752 cumulative IPC: 0.724499 (Simulation time: 0 hr 48 min 16 sec) 
Heartbeat CPU 0 instructions: 70000002 cycles: 87904091 heartbeat IPC: 0.731543 cumulative IPC: 0.724615 (Simulation time: 0 hr 48 min 55 sec) 
Heartbeat CPU 0 instructions: 71000000 cycles: 89276844 heartbeat IPC: 0.728462 cumulative IPC: 0.724678 (Simulation time: 0 hr 49 min 38 sec) 
Heartbeat CPU 0 instructions: 72000000 cycles: 90640299 heartbeat IPC: 0.733431 cumulative IPC: 0.724817 (Simulation time: 0 hr 50 min 20 sec) 
Heartbeat CPU 0 instructions: 73000000 cycles: 92005405 heartbeat IPC: 0.732544 cumulative IPC: 0.724939 (Simulation time: 0 hr 50 min 59 sec) 
Heartbeat CPU 0 instructions: 74000000 cycles: 93382391 heartbeat IPC: 0.726224 cumulative IPC: 0.724959 (Simulation time: 0 hr 51 min 42 sec) 
Heartbeat CPU 0 instructions: 75000001 cycles: 94749070 heartbeat IPC: 0.731701 cumulative IPC: 0.725061 (Simulation time: 0 hr 52 min 25 sec) 
Heartbeat CPU 0 instructions: 76000000 cycles: 96134784 heartbeat IPC: 0.721649 cumulative IPC: 0.725009 (Simulation time: 0 hr 53 min 7 sec) 
Heartbeat CPU 0 instructions: 77000003 cycles: 97501292 heartbeat IPC: 0.731794 cumulative IPC: 0.72511 (Simulation time: 0 hr 53 min 47 sec) 
Heartbeat CPU 0 instructions: 78000000 cycles: 98879133 heartbeat IPC: 0.725771 cumulative IPC: 0.725119 (Simulation time: 0 hr 54 min 32 sec) 
Heartbeat CPU 0 instructions: 79000002 cycles: 100256491 heartbeat IPC: 0.726029 cumulative IPC: 0.725133 (Simulation time: 0 hr 55 min 17 sec) 
Heartbeat CPU 0 instructions: 80000000 cycles: 101640328 heartbeat IPC: 0.722627 cumulative IPC: 0.725097 (Simulation time: 0 hr 55 min 53 sec) 
Heartbeat CPU 0 instructions: 81000000 cycles: 103028499 heartbeat IPC: 0.720372 cumulative IPC: 0.72503 (Simulation time: 0 hr 56 min 28 sec) 
Heartbeat CPU 0 instructions: 82000000 cycles: 104409701 heartbeat IPC: 0.724007 cumulative IPC: 0.725016 (Simulation time: 0 hr 57 min 3 sec) 
Heartbeat CPU 0 instructions: 83000000 cycles: 105793907 heartbeat IPC: 0.722436 cumulative IPC: 0.72498 (Simulation time: 0 hr 57 min 43 sec) 
Heartbeat CPU 0 instructions: 84000000 cycles: 107175506 heartbeat IPC: 0.723799 cumulative IPC: 0.724964 (Simulation time: 0 hr 58 min 22 sec) 
Heartbeat CPU 0 instructions: 85000000 cycles: 108551421 heartbeat IPC: 0.726789 cumulative IPC: 0.724988 (Simulation time: 0 hr 58 min 57 sec) 
Heartbeat CPU 0 instructions: 86000001 cycles: 109933983 heartbeat IPC: 0.723296 cumulative IPC: 0.724966 (Simulation time: 0 hr 59 min 36 sec) 
Heartbeat CPU 0 instructions: 87000001 cycles: 111316299 heartbeat IPC: 0.723424 cumulative IPC: 0.724946 (Simulation time: 1 hr 0 min 9 sec) 
Heartbeat CPU 0 instructions: 88000000 cycles: 112696144 heartbeat IPC: 0.724718 cumulative IPC: 0.724943 (Simulation time: 1 hr 0 min 40 sec) 
Heartbeat CPU 0 instructions: 89000003 cycles: 114078948 heartbeat IPC: 0.72317 cumulative IPC: 0.724921 (Simulation time: 1 hr 1 min 10 sec) 
Heartbeat CPU 0 instructions: 90000000 cycles: 115456052 heartbeat IPC: 0.726159 cumulative IPC: 0.724936 (Simulation time: 1 hr 1 min 39 sec) 
Heartbeat CPU 0 instructions: 91000001 cycles: 116848317 heartbeat IPC: 0.718255 cumulative IPC: 0.724853 (Simulation time: 1 hr 2 min 8 sec) 
Heartbeat CPU 0 instructions: 92000000 cycles: 118233078 heartbeat IPC: 0.722146 cumulative IPC: 0.72482 (Simulation time: 1 hr 2 min 37 sec) 
Heartbeat CPU 0 instructions: 93000000 cycles: 119615720 heartbeat IPC: 0.723253 cumulative IPC: 0.724801 (Simulation time: 1 hr 3 min 12 sec) 
Heartbeat CPU 0 instructions: 94000002 cycles: 120994868 heartbeat IPC: 0.725087 cumulative IPC: 0.724804 (Simulation time: 1 hr 3 min 38 sec) 
Heartbeat CPU 0 instructions: 95000001 cycles: 122374101 heartbeat IPC: 0.72504 cumulative IPC: 0.724807 (Simulation time: 1 hr 4 min 5 sec) 
Heartbeat CPU 0 instructions: 96000000 cycles: 123742063 heartbeat IPC: 0.731014 cumulative IPC: 0.724878 (Simulation time: 1 hr 4 min 39 sec) 
Heartbeat CPU 0 instructions: 97000000 cycles: 125112379 heartbeat IPC: 0.729759 cumulative IPC: 0.724934 (Simulation time: 1 hr 5 min 4 sec) 
Heartbeat CPU 0 instructions: 98000003 cycles: 126481207 heartbeat IPC: 0.730554 cumulative IPC: 0.724998 (Simulation time: 1 hr 5 min 30 sec) 
Heartbeat CPU 0 instructions: 99000000 cycles: 127850246 heartbeat IPC: 0.730437 cumulative IPC: 0.725058 (Simulation time: 1 hr 5 min 53 sec) 
Heartbeat CPU 0 instructions: 100000000 cycles: 129212256 heartbeat IPC: 0.734209 cumulative IPC: 0.725159 (Simulation time: 1 hr 6 min 15 sec) 
Heartbeat CPU 0 instructions: 101000000 cycles: 130577328 heartbeat IPC: 0.732562 cumulative IPC: 0.725239 (Simulation time: 1 hr 6 min 35 sec) 
Heartbeat CPU 0 instructions: 102000002 cycles: 131956779 heartbeat IPC: 0.724928 cumulative IPC: 0.725236 (Simulation time: 1 hr 6 min 57 sec) 
Heartbeat CPU 0 instructions: 103000003 cycles: 133325829 heartbeat IPC: 0.730434 cumulative IPC: 0.725291 (Simulation time: 1 hr 7 min 17 sec) 
Heartbeat CPU 0 instructions: 104000000 cycles: 134703387 heartbeat IPC: 0.72592 cumulative IPC: 0.725298 (Simulation time: 1 hr 7 min 39 sec) 
Heartbeat CPU 0 instructions: 105000000 cycles: 136067297 heartbeat IPC: 0.733186 cumulative IPC: 0.72538 (Simulation time: 1 hr 7 min 59 sec) 
Heartbeat CPU 0 instructions: 106000001 cycles: 137449530 heartbeat IPC: 0.723468 cumulative IPC: 0.72536 (Simulation time: 1 hr 8 min 19 sec) 
Heartbeat CPU 0 instructions: 107000000 cycles: 138834208 heartbeat IPC: 0.722189 cumulative IPC: 0.725327 (Simulation time: 1 hr 8 min 37 sec) 
Heartbeat CPU 0 instructions: 108000000 cycles: 140216698 heartbeat IPC: 0.723333 cumulative IPC: 0.725307 (Simulation time: 1 hr 8 min 55 sec) 
Heartbeat CPU 0 instructions: 109000003 cycles: 141610605 heartbeat IPC: 0.71741 cumulative IPC: 0.725226 (Simulation time: 1 hr 9 min 12 sec) 
Heartbeat CPU 0 instructions: 110000001 cycles: 142993028 heartbeat IPC: 0.723366 cumulative IPC: 0.725208 (Simulation time: 1 hr 9 min 29 sec) 
Finished CPU 0 instructions: 100000001 cycles: 137891538 cummulative IPC: 0.725208 (Simulation time: 1 hr 9 min 29 sec) 

ChampSim completed all CPUs

Region of Interest Statistics

CPU 0 cummulative IPC: 0.725208 instructions: 100000001 cycles: 137891538
LLC TOTAL     ACCESS:      42522  HIT:       7078  MISS:      35444
LLC LOAD      ACCESS:      13577  HIT:        394  MISS:      13183
LLC RFO       ACCESS:       3352  HIT:         12  MISS:       3340
LLC PREFETCH  ACCESS:      17694  HIT:        474  MISS:      17220
LLC WRITEBACK ACCESS:       7899  HIT:       6198  MISS:       1701
Insertion Distribution: 
	LOAD 0 0 11215 3704 
	RFO 0 0 2067 1591 
	PREF 0 963 14403 4112 
	WRITEBACK 0 0 0 1701 
Total Prefetch Downgrades: 177
