
*** ChampSim Multicore Out-of-Order Simulator ***

Warmup Instructions: 10000000
Simulation Instructions: 100000000
Configuration: 2
Number of CPUs: 1
LLC sets: 2048
LLC ways: 16
Off-chip DRAM Channels: 1 Width: 64-bit Data Rate: 1600 MT/s

CPU 0 runs /datasets/cs240c-wi22-a00-public/data/Assignment2-gz/sphinx3_1339B.trace.gz
CPU 0 L1D next line prefetcher
CPU 0 L2C IP-based stride prefetcher
Heartbeat CPU 0 instructions: 1000000 cycles: 339022 heartbeat IPC: 2.94966 cumulative IPC: 2.94966 (Simulation time: 0 hr 0 min 33 sec) 
Heartbeat CPU 0 instructions: 2000001 cycles: 693421 heartbeat IPC: 2.82168 cumulative IPC: 2.88425 (Simulation time: 0 hr 1 min 7 sec) 
Heartbeat CPU 0 instructions: 3000000 cycles: 1084511 heartbeat IPC: 2.55695 cumulative IPC: 2.76622 (Simulation time: 0 hr 1 min 42 sec) 
Heartbeat CPU 0 instructions: 4000000 cycles: 1530043 heartbeat IPC: 2.24451 cumulative IPC: 2.61431 (Simulation time: 0 hr 2 min 15 sec) 
Heartbeat CPU 0 instructions: 5000003 cycles: 1869062 heartbeat IPC: 2.9497 cumulative IPC: 2.67514 (Simulation time: 0 hr 2 min 51 sec) 
Heartbeat CPU 0 instructions: 6000002 cycles: 2253262 heartbeat IPC: 2.60281 cumulative IPC: 2.66281 (Simulation time: 0 hr 3 min 28 sec) 
Heartbeat CPU 0 instructions: 7000001 cycles: 2717189 heartbeat IPC: 2.15551 cumulative IPC: 2.57619 (Simulation time: 0 hr 4 min 0 sec) 
Heartbeat CPU 0 instructions: 8000000 cycles: 3056060 heartbeat IPC: 2.95097 cumulative IPC: 2.61775 (Simulation time: 0 hr 4 min 34 sec) 
Heartbeat CPU 0 instructions: 9000003 cycles: 3412632 heartbeat IPC: 2.80449 cumulative IPC: 2.63726 (Simulation time: 0 hr 5 min 9 sec) 
Heartbeat CPU 0 instructions: 10000001 cycles: 3799551 heartbeat IPC: 2.58452 cumulative IPC: 2.63189 (Simulation time: 0 hr 5 min 48 sec) 

Warmup complete CPU 0 instructions: 10000001 cycles: 3799551 (Simulation time: 0 hr 5 min 48 sec) 

Heartbeat CPU 0 instructions: 11000001 cycles: 4719735 heartbeat IPC: 1.08674 cumulative IPC: 1.08674 (Simulation time: 0 hr 6 min 30 sec) 
Heartbeat CPU 0 instructions: 12000000 cycles: 5611435 heartbeat IPC: 1.12145 cumulative IPC: 1.10382 (Simulation time: 0 hr 7 min 12 sec) 
Heartbeat CPU 0 instructions: 13000000 cycles: 6968581 heartbeat IPC: 0.73684 cumulative IPC: 0.946662 (Simulation time: 0 hr 7 min 55 sec) 
Heartbeat CPU 0 instructions: 14000000 cycles: 7877027 heartbeat IPC: 1.10078 cumulative IPC: 0.980999 (Simulation time: 0 hr 8 min 37 sec) 
Heartbeat CPU 0 instructions: 15000001 cycles: 8768598 heartbeat IPC: 1.12162 cumulative IPC: 1.00623 (Simulation time: 0 hr 9 min 18 sec) 
Heartbeat CPU 0 instructions: 16000000 cycles: 9868067 heartbeat IPC: 0.909529 cumulative IPC: 0.988709 (Simulation time: 0 hr 10 min 2 sec) 
Heartbeat CPU 0 instructions: 17000001 cycles: 11229246 heartbeat IPC: 0.734658 cumulative IPC: 0.942165 (Simulation time: 0 hr 10 min 47 sec) 
Heartbeat CPU 0 instructions: 18000003 cycles: 12300550 heartbeat IPC: 0.933444 cumulative IPC: 0.941066 (Simulation time: 0 hr 11 min 28 sec) 
Heartbeat CPU 0 instructions: 19000002 cycles: 13174679 heartbeat IPC: 1.14399 cumulative IPC: 0.959987 (Simulation time: 0 hr 12 min 8 sec) 
Heartbeat CPU 0 instructions: 20000000 cycles: 14060290 heartbeat IPC: 1.12916 cumulative IPC: 0.974589 (Simulation time: 0 hr 12 min 49 sec) 
Heartbeat CPU 0 instructions: 21000000 cycles: 15314639 heartbeat IPC: 0.797226 cumulative IPC: 0.955268 (Simulation time: 0 hr 13 min 32 sec) 
Heartbeat CPU 0 instructions: 22000000 cycles: 16323797 heartbeat IPC: 0.990925 cumulative IPC: 0.958141 (Simulation time: 0 hr 14 min 11 sec) 
Heartbeat CPU 0 instructions: 23000003 cycles: 17188047 heartbeat IPC: 1.15708 cumulative IPC: 0.970983 (Simulation time: 0 hr 14 min 52 sec) 
Heartbeat CPU 0 instructions: 24000000 cycles: 18153592 heartbeat IPC: 1.03568 cumulative IPC: 0.975335 (Simulation time: 0 hr 15 min 38 sec) 
Heartbeat CPU 0 instructions: 25000001 cycles: 19123259 heartbeat IPC: 1.03128 cumulative IPC: 0.978875 (Simulation time: 0 hr 16 min 21 sec) 
Heartbeat CPU 0 instructions: 26000003 cycles: 19961494 heartbeat IPC: 1.19299 cumulative IPC: 0.98998 (Simulation time: 0 hr 17 min 3 sec) 
Heartbeat CPU 0 instructions: 27000002 cycles: 20812844 heartbeat IPC: 1.1746 cumulative IPC: 0.999219 (Simulation time: 0 hr 17 min 47 sec) 
Heartbeat CPU 0 instructions: 28000000 cycles: 21796737 heartbeat IPC: 1.01637 cumulative IPC: 1.00016 (Simulation time: 0 hr 18 min 31 sec) 
Heartbeat CPU 0 instructions: 29000003 cycles: 22632303 heartbeat IPC: 1.1968 cumulative IPC: 1.00888 (Simulation time: 0 hr 19 min 10 sec) 
Heartbeat CPU 0 instructions: 30000003 cycles: 23460072 heartbeat IPC: 1.20807 cumulative IPC: 1.01727 (Simulation time: 0 hr 19 min 50 sec) 
Heartbeat CPU 0 instructions: 31000002 cycles: 24412442 heartbeat IPC: 1.05001 cumulative IPC: 1.01878 (Simulation time: 0 hr 20 min 31 sec) 
Heartbeat CPU 0 instructions: 32000000 cycles: 25293303 heartbeat IPC: 1.13525 cumulative IPC: 1.02355 (Simulation time: 0 hr 21 min 9 sec) 
Heartbeat CPU 0 instructions: 33000001 cycles: 26121885 heartbeat IPC: 1.20688 cumulative IPC: 1.03036 (Simulation time: 0 hr 21 min 50 sec) 
Heartbeat CPU 0 instructions: 34000001 cycles: 27523596 heartbeat IPC: 0.713414 cumulative IPC: 1.01163 (Simulation time: 0 hr 22 min 34 sec) 
Heartbeat CPU 0 instructions: 35000002 cycles: 28447170 heartbeat IPC: 1.08275 cumulative IPC: 1.0143 (Simulation time: 0 hr 23 min 16 sec) 
Heartbeat CPU 0 instructions: 36000000 cycles: 29313159 heartbeat IPC: 1.15475 cumulative IPC: 1.01906 (Simulation time: 0 hr 23 min 57 sec) 
Heartbeat CPU 0 instructions: 37000003 cycles: 30348778 heartbeat IPC: 0.965609 cumulative IPC: 1.01698 (Simulation time: 0 hr 24 min 39 sec) 
Heartbeat CPU 0 instructions: 38000000 cycles: 31537379 heartbeat IPC: 0.841323 cumulative IPC: 1.00945 (Simulation time: 0 hr 25 min 18 sec) 
Heartbeat CPU 0 instructions: 39000000 cycles: 32419022 heartbeat IPC: 1.13425 cumulative IPC: 1.0133 (Simulation time: 0 hr 25 min 57 sec) 
Heartbeat CPU 0 instructions: 40000000 cycles: 33254126 heartbeat IPC: 1.19746 cumulative IPC: 1.01852 (Simulation time: 0 hr 26 min 35 sec) 
Heartbeat CPU 0 instructions: 41000000 cycles: 34516968 heartbeat IPC: 0.791865 cumulative IPC: 1.0092 (Simulation time: 0 hr 27 min 12 sec) 
Heartbeat CPU 0 instructions: 42000002 cycles: 35409546 heartbeat IPC: 1.12035 cumulative IPC: 1.01234 (Simulation time: 0 hr 27 min 50 sec) 
Heartbeat CPU 0 instructions: 43000001 cycles: 36259688 heartbeat IPC: 1.17627 cumulative IPC: 1.01663 (Simulation time: 0 hr 28 min 26 sec) 
Heartbeat CPU 0 instructions: 44000000 cycles: 37337779 heartbeat IPC: 0.927565 cumulative IPC: 1.01377 (Simulation time: 0 hr 29 min 4 sec) 
Heartbeat CPU 0 instructions: 45000002 cycles: 38364496 heartbeat IPC: 0.97398 cumulative IPC: 1.01259 (Simulation time: 0 hr 29 min 41 sec) 
Heartbeat CPU 0 instructions: 46000003 cycles: 39192727 heartbeat IPC: 1.20739 cumulative IPC: 1.01715 (Simulation time: 0 hr 30 min 16 sec) 
Heartbeat CPU 0 instructions: 47000001 cycles: 40037383 heartbeat IPC: 1.18391 cumulative IPC: 1.02103 (Simulation time: 0 hr 30 min 52 sec) 
Heartbeat CPU 0 instructions: 48000000 cycles: 41055116 heartbeat IPC: 0.982575 cumulative IPC: 1.01998 (Simulation time: 0 hr 31 min 28 sec) 
Heartbeat CPU 0 instructions: 49000000 cycles: 41906948 heartbeat IPC: 1.17394 cumulative IPC: 1.02342 (Simulation time: 0 hr 32 min 3 sec) 
Heartbeat CPU 0 instructions: 50000003 cycles: 42729518 heartbeat IPC: 1.21571 cumulative IPC: 1.02749 (Simulation time: 0 hr 32 min 41 sec) 
Heartbeat CPU 0 instructions: 51000003 cycles: 43952302 heartbeat IPC: 0.817806 cumulative IPC: 1.0211 (Simulation time: 0 hr 33 min 18 sec) 
Heartbeat CPU 0 instructions: 52000000 cycles: 44801482 heartbeat IPC: 1.1776 cumulative IPC: 1.02434 (Simulation time: 0 hr 33 min 54 sec) 
Heartbeat CPU 0 instructions: 53000002 cycles: 45629161 heartbeat IPC: 1.2082 cumulative IPC: 1.02798 (Simulation time: 0 hr 34 min 29 sec) 
Heartbeat CPU 0 instructions: 54000003 cycles: 46797112 heartbeat IPC: 0.856201 cumulative IPC: 1.02331 (Simulation time: 0 hr 35 min 9 sec) 
Heartbeat CPU 0 instructions: 55000001 cycles: 47715349 heartbeat IPC: 1.08904 cumulative IPC: 1.02469 (Simulation time: 0 hr 35 min 44 sec) 
Heartbeat CPU 0 instructions: 56000000 cycles: 48559127 heartbeat IPC: 1.18514 cumulative IPC: 1.02771 (Simulation time: 0 hr 36 min 21 sec) 
Heartbeat CPU 0 instructions: 57000000 cycles: 49544262 heartbeat IPC: 1.01509 cumulative IPC: 1.02744 (Simulation time: 0 hr 36 min 56 sec) 
Heartbeat CPU 0 instructions: 58000000 cycles: 50645566 heartbeat IPC: 0.908014 cumulative IPC: 1.02463 (Simulation time: 0 hr 37 min 32 sec) 
Heartbeat CPU 0 instructions: 59000001 cycles: 51481069 heartbeat IPC: 1.19688 cumulative IPC: 1.02765 (Simulation time: 0 hr 38 min 7 sec) 
Heartbeat CPU 0 instructions: 60000000 cycles: 52312864 heartbeat IPC: 1.20222 cumulative IPC: 1.03064 (Simulation time: 0 hr 38 min 40 sec) 
Heartbeat CPU 0 instructions: 61000000 cycles: 53651769 heartbeat IPC: 0.746879 cumulative IPC: 1.02302 (Simulation time: 0 hr 39 min 22 sec) 
Heartbeat CPU 0 instructions: 62000002 cycles: 54792007 heartbeat IPC: 0.877012 cumulative IPC: 1.01976 (Simulation time: 0 hr 40 min 1 sec) 
Heartbeat CPU 0 instructions: 63000003 cycles: 55637990 heartbeat IPC: 1.18206 cumulative IPC: 1.02241 (Simulation time: 0 hr 40 min 35 sec) 
Heartbeat CPU 0 instructions: 64000000 cycles: 56466810 heartbeat IPC: 1.20653 cumulative IPC: 1.0253 (Simulation time: 0 hr 41 min 9 sec) 
Heartbeat CPU 0 instructions: 65000000 cycles: 57552716 heartbeat IPC: 0.92089 cumulative IPC: 1.0232 (Simulation time: 0 hr 41 min 46 sec) 
Heartbeat CPU 0 instructions: 66000001 cycles: 58540578 heartbeat IPC: 1.01229 cumulative IPC: 1.023 (Simulation time: 0 hr 42 min 20 sec) 
Heartbeat CPU 0 instructions: 67000000 cycles: 59374225 heartbeat IPC: 1.19955 cumulative IPC: 1.02565 (Simulation time: 0 hr 42 min 54 sec) 
Heartbeat CPU 0 instructions: 68000000 cycles: 60272066 heartbeat IPC: 1.11378 cumulative IPC: 1.02705 (Simulation time: 0 hr 43 min 29 sec) 
Heartbeat CPU 0 instructions: 69000003 cycles: 61417875 heartbeat IPC: 0.872748 cumulative IPC: 1.02398 (Simulation time: 0 hr 44 min 7 sec) 
Heartbeat CPU 0 instructions: 70000001 cycles: 62279087 heartbeat IPC: 1.16115 cumulative IPC: 1.026 (Simulation time: 0 hr 44 min 44 sec) 
Heartbeat CPU 0 instructions: 71000001 cycles: 63103567 heartbeat IPC: 1.21289 cumulative IPC: 1.0286 (Simulation time: 0 hr 45 min 21 sec) 
Heartbeat CPU 0 instructions: 72000000 cycles: 64330420 heartbeat IPC: 0.815093 cumulative IPC: 1.02427 (Simulation time: 0 hr 46 min 0 sec) 
Heartbeat CPU 0 instructions: 73000001 cycles: 65182563 heartbeat IPC: 1.17351 cumulative IPC: 1.02634 (Simulation time: 0 hr 46 min 37 sec) 
Heartbeat CPU 0 instructions: 74000001 cycles: 66010032 heartbeat IPC: 1.2085 cumulative IPC: 1.02877 (Simulation time: 0 hr 47 min 14 sec) 
Heartbeat CPU 0 instructions: 75000003 cycles: 67120583 heartbeat IPC: 0.900456 cumulative IPC: 1.02652 (Simulation time: 0 hr 47 min 53 sec) 
Heartbeat CPU 0 instructions: 76000000 cycles: 68064471 heartbeat IPC: 1.05944 cumulative IPC: 1.027 (Simulation time: 0 hr 48 min 32 sec) 
Heartbeat CPU 0 instructions: 77000002 cycles: 68899015 heartbeat IPC: 1.19826 cumulative IPC: 1.02919 (Simulation time: 0 hr 49 min 10 sec) 
Heartbeat CPU 0 instructions: 78000002 cycles: 69827904 heartbeat IPC: 1.07655 cumulative IPC: 1.02986 (Simulation time: 0 hr 49 min 48 sec) 
Heartbeat CPU 0 instructions: 79000001 cycles: 70921875 heartbeat IPC: 0.9141 cumulative IPC: 1.02797 (Simulation time: 0 hr 50 min 24 sec) 
Heartbeat CPU 0 instructions: 80000000 cycles: 71781553 heartbeat IPC: 1.16323 cumulative IPC: 1.02968 (Simulation time: 0 hr 51 min 2 sec) 
Heartbeat CPU 0 instructions: 81000003 cycles: 72613794 heartbeat IPC: 1.20158 cumulative IPC: 1.03176 (Simulation time: 0 hr 51 min 36 sec) 
Heartbeat CPU 0 instructions: 82000000 cycles: 73811130 heartbeat IPC: 0.835185 cumulative IPC: 1.0284 (Simulation time: 0 hr 52 min 13 sec) 
Heartbeat CPU 0 instructions: 83000001 cycles: 74669379 heartbeat IPC: 1.16516 cumulative IPC: 1.03006 (Simulation time: 0 hr 52 min 48 sec) 
Heartbeat CPU 0 instructions: 84000000 cycles: 75501273 heartbeat IPC: 1.20208 cumulative IPC: 1.03205 (Simulation time: 0 hr 53 min 23 sec) 
Heartbeat CPU 0 instructions: 85000002 cycles: 76663224 heartbeat IPC: 0.860623 cumulative IPC: 1.02932 (Simulation time: 0 hr 53 min 59 sec) 
Heartbeat CPU 0 instructions: 86000003 cycles: 77568534 heartbeat IPC: 1.1046 cumulative IPC: 1.03024 (Simulation time: 0 hr 54 min 33 sec) 
Heartbeat CPU 0 instructions: 87000001 cycles: 78403087 heartbeat IPC: 1.19824 cumulative IPC: 1.03212 (Simulation time: 0 hr 55 min 11 sec) 
Heartbeat CPU 0 instructions: 88000000 cycles: 79429264 heartbeat IPC: 0.97449 cumulative IPC: 1.03134 (Simulation time: 0 hr 55 min 49 sec) 
Heartbeat CPU 0 instructions: 89000000 cycles: 80457296 heartbeat IPC: 0.972732 cumulative IPC: 1.03055 (Simulation time: 0 hr 56 min 26 sec) 
Heartbeat CPU 0 instructions: 90000003 cycles: 81287975 heartbeat IPC: 1.20384 cumulative IPC: 1.03241 (Simulation time: 0 hr 57 min 2 sec) 
Heartbeat CPU 0 instructions: 91000000 cycles: 82134741 heartbeat IPC: 1.18096 cumulative IPC: 1.03402 (Simulation time: 0 hr 57 min 37 sec) 
Heartbeat CPU 0 instructions: 92000000 cycles: 83333838 heartbeat IPC: 0.833961 cumulative IPC: 1.031 (Simulation time: 0 hr 58 min 15 sec) 
Heartbeat CPU 0 instructions: 93000001 cycles: 84186491 heartbeat IPC: 1.17281 cumulative IPC: 1.03251 (Simulation time: 0 hr 58 min 50 sec) 
Heartbeat CPU 0 instructions: 94000001 cycles: 85011691 heartbeat IPC: 1.21183 cumulative IPC: 1.03433 (Simulation time: 0 hr 59 min 24 sec) 
Heartbeat CPU 0 instructions: 95000002 cycles: 86238435 heartbeat IPC: 0.815167 cumulative IPC: 1.03107 (Simulation time: 0 hr 59 min 59 sec) 
Heartbeat CPU 0 instructions: 96000000 cycles: 87106037 heartbeat IPC: 1.1526 cumulative IPC: 1.03233 (Simulation time: 1 hr 0 min 33 sec) 
Heartbeat CPU 0 instructions: 97000002 cycles: 87934107 heartbeat IPC: 1.20763 cumulative IPC: 1.03406 (Simulation time: 1 hr 1 min 7 sec) 
Heartbeat CPU 0 instructions: 98000000 cycles: 89036427 heartbeat IPC: 0.907176 cumulative IPC: 1.03242 (Simulation time: 1 hr 1 min 43 sec) 
Heartbeat CPU 0 instructions: 99000003 cycles: 90147440 heartbeat IPC: 0.900082 cumulative IPC: 1.03071 (Simulation time: 1 hr 2 min 16 sec) 
Heartbeat CPU 0 instructions: 100000000 cycles: 90995379 heartbeat IPC: 1.17933 cumulative IPC: 1.03216 (Simulation time: 1 hr 2 min 50 sec) 
Heartbeat CPU 0 instructions: 101000000 cycles: 91846073 heartbeat IPC: 1.17551 cumulative IPC: 1.03354 (Simulation time: 1 hr 3 min 22 sec) 
Heartbeat CPU 0 instructions: 102000001 cycles: 93313823 heartbeat IPC: 0.681316 cumulative IPC: 1.02777 (Simulation time: 1 hr 3 min 58 sec) 
Heartbeat CPU 0 instructions: 103000000 cycles: 94568384 heartbeat IPC: 0.797091 cumulative IPC: 1.02458 (Simulation time: 1 hr 4 min 34 sec) 
Heartbeat CPU 0 instructions: 104000000 cycles: 95516944 heartbeat IPC: 1.05423 cumulative IPC: 1.02489 (Simulation time: 1 hr 5 min 7 sec) 
Heartbeat CPU 0 instructions: 105000003 cycles: 96352258 heartbeat IPC: 1.19716 cumulative IPC: 1.02644 (Simulation time: 1 hr 5 min 41 sec) 
Heartbeat CPU 0 instructions: 106000000 cycles: 97223504 heartbeat IPC: 1.14778 cumulative IPC: 1.02757 (Simulation time: 1 hr 6 min 15 sec) 
Heartbeat CPU 0 instructions: 107000001 cycles: 98699689 heartbeat IPC: 0.677423 cumulative IPC: 1.02213 (Simulation time: 1 hr 6 min 50 sec) 
Heartbeat CPU 0 instructions: 108000000 cycles: 99618040 heartbeat IPC: 1.08891 cumulative IPC: 1.02277 (Simulation time: 1 hr 7 min 22 sec) 
Heartbeat CPU 0 instructions: 109000000 cycles: 100450644 heartbeat IPC: 1.20105 cumulative IPC: 1.0243 (Simulation time: 1 hr 7 min 53 sec) 
Heartbeat CPU 0 instructions: 110000003 cycles: 101589238 heartbeat IPC: 0.878279 cumulative IPC: 1.0226 (Simulation time: 1 hr 8 min 25 sec) 
Finished CPU 0 instructions: 100000002 cycles: 97789687 cummulative IPC: 1.0226 (Simulation time: 1 hr 8 min 25 sec) 

ChampSim completed all CPUs

Region of Interest Statistics

CPU 0 cummulative IPC: 1.0226 instructions: 100000002 cycles: 97789687
LLC TOTAL     ACCESS:    1574049  HIT:     544050  MISS:    1029999
LLC LOAD      ACCESS:     202279  HIT:     170843  MISS:      31436
LLC RFO       ACCESS:     111381  HIT:     109799  MISS:       1582
LLC PREFETCH  ACCESS:    1127230  HIT:     131115  MISS:     996115
LLC WRITEBACK ACCESS:     133159  HIT:     132293  MISS:        866
