
*** ChampSim Multicore Out-of-Order Simulator ***

Warmup Instructions: 10000000
Simulation Instructions: 100000000
Configuration: 2
Number of CPUs: 1
LLC sets: 2048
LLC ways: 16
Off-chip DRAM Channels: 1 Width: 64-bit Data Rate: 1600 MT/s

CPU 0 runs /datasets/cs240c-wi22-a00-public/data/Assignment2-gz/wrf_1228B.trace.gz
CPU 0 L1D next line prefetcher
CPU 0 L2C IP-based stride prefetcher
Initialize SRRIP state
Heartbeat CPU 0 instructions: 1000003 cycles: 591063 heartbeat IPC: 1.69187 cumulative IPC: 1.69187 (Simulation time: 0 hr 0 min 41 sec) 
Heartbeat CPU 0 instructions: 2000003 cycles: 1111232 heartbeat IPC: 1.92245 cumulative IPC: 1.79981 (Simulation time: 0 hr 1 min 15 sec) 
Heartbeat CPU 0 instructions: 3000000 cycles: 1729198 heartbeat IPC: 1.61821 cumulative IPC: 1.73491 (Simulation time: 0 hr 1 min 52 sec) 
Heartbeat CPU 0 instructions: 4000000 cycles: 2349850 heartbeat IPC: 1.61121 cumulative IPC: 1.70224 (Simulation time: 0 hr 2 min 29 sec) 
Heartbeat CPU 0 instructions: 5000000 cycles: 3052214 heartbeat IPC: 1.42376 cumulative IPC: 1.63816 (Simulation time: 0 hr 3 min 6 sec) 
Heartbeat CPU 0 instructions: 6000000 cycles: 3612303 heartbeat IPC: 1.78543 cumulative IPC: 1.66099 (Simulation time: 0 hr 3 min 43 sec) 
Heartbeat CPU 0 instructions: 7000001 cycles: 4165063 heartbeat IPC: 1.80911 cumulative IPC: 1.68065 (Simulation time: 0 hr 4 min 16 sec) 
Heartbeat CPU 0 instructions: 8000000 cycles: 4716424 heartbeat IPC: 1.81369 cumulative IPC: 1.6962 (Simulation time: 0 hr 4 min 51 sec) 
Heartbeat CPU 0 instructions: 9000002 cycles: 5266612 heartbeat IPC: 1.81756 cumulative IPC: 1.70888 (Simulation time: 0 hr 5 min 25 sec) 
Heartbeat CPU 0 instructions: 10000001 cycles: 5819509 heartbeat IPC: 1.80865 cumulative IPC: 1.71836 (Simulation time: 0 hr 5 min 58 sec) 

Warmup complete CPU 0 instructions: 10000001 cycles: 5819509 (Simulation time: 0 hr 5 min 58 sec) 

Heartbeat CPU 0 instructions: 11000003 cycles: 6768007 heartbeat IPC: 1.0543 cumulative IPC: 1.0543 (Simulation time: 0 hr 6 min 33 sec) 
Heartbeat CPU 0 instructions: 12000000 cycles: 7758491 heartbeat IPC: 1.0096 cumulative IPC: 1.03147 (Simulation time: 0 hr 7 min 6 sec) 
Heartbeat CPU 0 instructions: 13000003 cycles: 8755661 heartbeat IPC: 1.00284 cumulative IPC: 1.02175 (Simulation time: 0 hr 7 min 40 sec) 
Heartbeat CPU 0 instructions: 14000002 cycles: 9703965 heartbeat IPC: 1.05451 cumulative IPC: 1.02975 (Simulation time: 0 hr 8 min 13 sec) 
Heartbeat CPU 0 instructions: 15000001 cycles: 10540549 heartbeat IPC: 1.19534 cumulative IPC: 1.05909 (Simulation time: 0 hr 8 min 43 sec) 
Heartbeat CPU 0 instructions: 16000000 cycles: 11391993 heartbeat IPC: 1.17447 cumulative IPC: 1.07672 (Simulation time: 0 hr 9 min 15 sec) 
Heartbeat CPU 0 instructions: 17000002 cycles: 12292790 heartbeat IPC: 1.11013 cumulative IPC: 1.08137 (Simulation time: 0 hr 9 min 48 sec) 
Heartbeat CPU 0 instructions: 18000003 cycles: 13182122 heartbeat IPC: 1.12444 cumulative IPC: 1.08657 (Simulation time: 0 hr 10 min 18 sec) 
Heartbeat CPU 0 instructions: 19000000 cycles: 14065214 heartbeat IPC: 1.13238 cumulative IPC: 1.09148 (Simulation time: 0 hr 10 min 50 sec) 
Heartbeat CPU 0 instructions: 20000000 cycles: 14963039 heartbeat IPC: 1.1138 cumulative IPC: 1.09367 (Simulation time: 0 hr 11 min 22 sec) 
Heartbeat CPU 0 instructions: 21000000 cycles: 15876150 heartbeat IPC: 1.09516 cumulative IPC: 1.0938 (Simulation time: 0 hr 11 min 52 sec) 
Heartbeat CPU 0 instructions: 22000000 cycles: 16809229 heartbeat IPC: 1.07172 cumulative IPC: 1.09193 (Simulation time: 0 hr 12 min 21 sec) 
Heartbeat CPU 0 instructions: 23000003 cycles: 17721834 heartbeat IPC: 1.09577 cumulative IPC: 1.09222 (Simulation time: 0 hr 12 min 53 sec) 
Heartbeat CPU 0 instructions: 24000000 cycles: 18680054 heartbeat IPC: 1.0436 cumulative IPC: 1.0886 (Simulation time: 0 hr 13 min 26 sec) 
Heartbeat CPU 0 instructions: 25000000 cycles: 19683856 heartbeat IPC: 0.996212 cumulative IPC: 1.08191 (Simulation time: 0 hr 14 min 3 sec) 
Heartbeat CPU 0 instructions: 26000003 cycles: 20689076 heartbeat IPC: 0.99481 cumulative IPC: 1.07602 (Simulation time: 0 hr 14 min 36 sec) 
Heartbeat CPU 0 instructions: 27000003 cycles: 21728597 heartbeat IPC: 0.961982 cumulative IPC: 1.06857 (Simulation time: 0 hr 15 min 10 sec) 
Heartbeat CPU 0 instructions: 28000000 cycles: 22797551 heartbeat IPC: 0.935491 cumulative IPC: 1.06019 (Simulation time: 0 hr 15 min 48 sec) 
Heartbeat CPU 0 instructions: 29000003 cycles: 24286489 heartbeat IPC: 0.671622 cumulative IPC: 1.02886 (Simulation time: 0 hr 16 min 28 sec) 
Heartbeat CPU 0 instructions: 30000000 cycles: 25808378 heartbeat IPC: 0.657076 cumulative IPC: 1.00056 (Simulation time: 0 hr 17 min 7 sec) 
Heartbeat CPU 0 instructions: 31000003 cycles: 27531231 heartbeat IPC: 0.580434 cumulative IPC: 0.96722 (Simulation time: 0 hr 17 min 46 sec) 
Heartbeat CPU 0 instructions: 32000000 cycles: 29341884 heartbeat IPC: 0.552285 cumulative IPC: 0.93528 (Simulation time: 0 hr 18 min 24 sec) 
Heartbeat CPU 0 instructions: 33000001 cycles: 30712905 heartbeat IPC: 0.729384 cumulative IPC: 0.92394 (Simulation time: 0 hr 19 min 1 sec) 
Heartbeat CPU 0 instructions: 34000002 cycles: 32170850 heartbeat IPC: 0.685898 cumulative IPC: 0.91077 (Simulation time: 0 hr 19 min 43 sec) 
Heartbeat CPU 0 instructions: 35000001 cycles: 33984335 heartbeat IPC: 0.551424 cumulative IPC: 0.887632 (Simulation time: 0 hr 20 min 23 sec) 
Heartbeat CPU 0 instructions: 36000000 cycles: 34912298 heartbeat IPC: 1.07763 cumulative IPC: 0.893692 (Simulation time: 0 hr 20 min 58 sec) 
Heartbeat CPU 0 instructions: 37000001 cycles: 35821592 heartbeat IPC: 1.09976 cumulative IPC: 0.899938 (Simulation time: 0 hr 21 min 35 sec) 
Heartbeat CPU 0 instructions: 38000003 cycles: 36730808 heartbeat IPC: 1.09985 cumulative IPC: 0.905818 (Simulation time: 0 hr 22 min 8 sec) 
Heartbeat CPU 0 instructions: 39000002 cycles: 37671748 heartbeat IPC: 1.06277 cumulative IPC: 0.910454 (Simulation time: 0 hr 22 min 41 sec) 
Heartbeat CPU 0 instructions: 40000000 cycles: 38599826 heartbeat IPC: 1.07749 cumulative IPC: 0.915183 (Simulation time: 0 hr 23 min 14 sec) 
Heartbeat CPU 0 instructions: 41000000 cycles: 39544102 heartbeat IPC: 1.05901 cumulative IPC: 0.91921 (Simulation time: 0 hr 23 min 47 sec) 
Heartbeat CPU 0 instructions: 42000002 cycles: 40495172 heartbeat IPC: 1.05145 cumulative IPC: 0.922837 (Simulation time: 0 hr 24 min 18 sec) 
Heartbeat CPU 0 instructions: 43000002 cycles: 41463900 heartbeat IPC: 1.03228 cumulative IPC: 0.925812 (Simulation time: 0 hr 24 min 49 sec) 
Heartbeat CPU 0 instructions: 44000000 cycles: 42340235 heartbeat IPC: 1.14111 cumulative IPC: 0.930978 (Simulation time: 0 hr 25 min 19 sec) 
Heartbeat CPU 0 instructions: 45000000 cycles: 43172256 heartbeat IPC: 1.20189 cumulative IPC: 0.937013 (Simulation time: 0 hr 25 min 48 sec) 
Heartbeat CPU 0 instructions: 46000001 cycles: 44004927 heartbeat IPC: 1.20096 cumulative IPC: 0.942768 (Simulation time: 0 hr 26 min 16 sec) 
Heartbeat CPU 0 instructions: 47000001 cycles: 44870270 heartbeat IPC: 1.15561 cumulative IPC: 0.947485 (Simulation time: 0 hr 26 min 46 sec) 
Heartbeat CPU 0 instructions: 48000000 cycles: 45725053 heartbeat IPC: 1.16989 cumulative IPC: 0.952249 (Simulation time: 0 hr 27 min 15 sec) 
Heartbeat CPU 0 instructions: 49000001 cycles: 46600191 heartbeat IPC: 1.14268 cumulative IPC: 0.956335 (Simulation time: 0 hr 27 min 45 sec) 
Heartbeat CPU 0 instructions: 50000002 cycles: 47492906 heartbeat IPC: 1.12018 cumulative IPC: 0.959845 (Simulation time: 0 hr 28 min 13 sec) 
Heartbeat CPU 0 instructions: 51000001 cycles: 48387709 heartbeat IPC: 1.11756 cumulative IPC: 0.96316 (Simulation time: 0 hr 28 min 45 sec) 
Heartbeat CPU 0 instructions: 52000000 cycles: 49329823 heartbeat IPC: 1.06144 cumulative IPC: 0.965288 (Simulation time: 0 hr 29 min 19 sec) 
Heartbeat CPU 0 instructions: 53000002 cycles: 50298904 heartbeat IPC: 1.03191 cumulative IPC: 0.96674 (Simulation time: 0 hr 29 min 50 sec) 
Heartbeat CPU 0 instructions: 54000001 cycles: 51250880 heartbeat IPC: 1.05045 cumulative IPC: 0.968494 (Simulation time: 0 hr 30 min 22 sec) 
Heartbeat CPU 0 instructions: 55000001 cycles: 52219858 heartbeat IPC: 1.03202 cumulative IPC: 0.96982 (Simulation time: 0 hr 30 min 58 sec) 
Heartbeat CPU 0 instructions: 56000000 cycles: 53205276 heartbeat IPC: 1.0148 cumulative IPC: 0.970756 (Simulation time: 0 hr 31 min 32 sec) 
Heartbeat CPU 0 instructions: 57000001 cycles: 54194655 heartbeat IPC: 1.01074 cumulative IPC: 0.971573 (Simulation time: 0 hr 32 min 8 sec) 
Heartbeat CPU 0 instructions: 58000000 cycles: 55213068 heartbeat IPC: 0.981919 cumulative IPC: 0.971787 (Simulation time: 0 hr 32 min 42 sec) 
Heartbeat CPU 0 instructions: 59000001 cycles: 57096719 heartbeat IPC: 0.530884 cumulative IPC: 0.95559 (Simulation time: 0 hr 33 min 22 sec) 
Heartbeat CPU 0 instructions: 60000000 cycles: 58658044 heartbeat IPC: 0.640481 cumulative IPC: 0.946279 (Simulation time: 0 hr 34 min 2 sec) 
Heartbeat CPU 0 instructions: 61000000 cycles: 60319664 heartbeat IPC: 0.601822 cumulative IPC: 0.935777 (Simulation time: 0 hr 34 min 39 sec) 
Heartbeat CPU 0 instructions: 62000000 cycles: 61841651 heartbeat IPC: 0.657036 cumulative IPC: 0.928204 (Simulation time: 0 hr 35 min 16 sec) 
Heartbeat CPU 0 instructions: 63000001 cycles: 63234727 heartbeat IPC: 0.717837 cumulative IPC: 0.9231 (Simulation time: 0 hr 35 min 53 sec) 
Heartbeat CPU 0 instructions: 64000000 cycles: 64690570 heartbeat IPC: 0.686887 cumulative IPC: 0.917259 (Simulation time: 0 hr 36 min 30 sec) 
Heartbeat CPU 0 instructions: 65000003 cycles: 66185396 heartbeat IPC: 0.668976 cumulative IPC: 0.911111 (Simulation time: 0 hr 37 min 11 sec) 
Heartbeat CPU 0 instructions: 66000000 cycles: 67680988 heartbeat IPC: 0.66863 cumulative IPC: 0.905248 (Simulation time: 0 hr 37 min 48 sec) 
Heartbeat CPU 0 instructions: 67000000 cycles: 69175511 heartbeat IPC: 0.66911 cumulative IPC: 0.899678 (Simulation time: 0 hr 38 min 28 sec) 
Heartbeat CPU 0 instructions: 68000000 cycles: 70669961 heartbeat IPC: 0.669142 cumulative IPC: 0.894365 (Simulation time: 0 hr 39 min 8 sec) 
Heartbeat CPU 0 instructions: 69000000 cycles: 72177205 heartbeat IPC: 0.663463 cumulative IPC: 0.889121 (Simulation time: 0 hr 39 min 48 sec) 
Heartbeat CPU 0 instructions: 70000001 cycles: 73674376 heartbeat IPC: 0.667927 cumulative IPC: 0.88424 (Simulation time: 0 hr 40 min 28 sec) 
Heartbeat CPU 0 instructions: 71000001 cycles: 75168443 heartbeat IPC: 0.669314 cumulative IPC: 0.87961 (Simulation time: 0 hr 41 min 7 sec) 
Heartbeat CPU 0 instructions: 72000000 cycles: 76651396 heartbeat IPC: 0.67433 cumulative IPC: 0.875312 (Simulation time: 0 hr 41 min 46 sec) 
Heartbeat CPU 0 instructions: 73000003 cycles: 78139105 heartbeat IPC: 0.672176 cumulative IPC: 0.871133 (Simulation time: 0 hr 42 min 25 sec) 
Heartbeat CPU 0 instructions: 74000000 cycles: 79636633 heartbeat IPC: 0.667765 cumulative IPC: 0.867007 (Simulation time: 0 hr 43 min 5 sec) 
Heartbeat CPU 0 instructions: 75000001 cycles: 81130605 heartbeat IPC: 0.669357 cumulative IPC: 0.863087 (Simulation time: 0 hr 43 min 48 sec) 
Heartbeat CPU 0 instructions: 76000000 cycles: 82627040 heartbeat IPC: 0.668254 cumulative IPC: 0.859291 (Simulation time: 0 hr 44 min 28 sec) 
Heartbeat CPU 0 instructions: 77000003 cycles: 84120836 heartbeat IPC: 0.669437 cumulative IPC: 0.855669 (Simulation time: 0 hr 45 min 6 sec) 
Heartbeat CPU 0 instructions: 78000001 cycles: 85615527 heartbeat IPC: 0.669033 cumulative IPC: 0.852173 (Simulation time: 0 hr 45 min 45 sec) 
Heartbeat CPU 0 instructions: 79000000 cycles: 87112127 heartbeat IPC: 0.668181 cumulative IPC: 0.848786 (Simulation time: 0 hr 46 min 23 sec) 
Heartbeat CPU 0 instructions: 80000000 cycles: 88602512 heartbeat IPC: 0.670968 cumulative IPC: 0.845584 (Simulation time: 0 hr 47 min 2 sec) 
Heartbeat CPU 0 instructions: 81000001 cycles: 90086446 heartbeat IPC: 0.673885 cumulative IPC: 0.842561 (Simulation time: 0 hr 47 min 42 sec) 
Heartbeat CPU 0 instructions: 82000000 cycles: 91569408 heartbeat IPC: 0.674325 cumulative IPC: 0.839651 (Simulation time: 0 hr 48 min 22 sec) 
Heartbeat CPU 0 instructions: 83000000 cycles: 93052760 heartbeat IPC: 0.674149 cumulative IPC: 0.836837 (Simulation time: 0 hr 48 min 59 sec) 
Heartbeat CPU 0 instructions: 84000000 cycles: 94547658 heartbeat IPC: 0.668942 cumulative IPC: 0.834008 (Simulation time: 0 hr 49 min 35 sec) 
Heartbeat CPU 0 instructions: 85000000 cycles: 96042541 heartbeat IPC: 0.668949 cumulative IPC: 0.831273 (Simulation time: 0 hr 50 min 9 sec) 
Heartbeat CPU 0 instructions: 86000000 cycles: 97536306 heartbeat IPC: 0.669449 cumulative IPC: 0.828638 (Simulation time: 0 hr 50 min 44 sec) 
Heartbeat CPU 0 instructions: 87000000 cycles: 99031161 heartbeat IPC: 0.668961 cumulative IPC: 0.826077 (Simulation time: 0 hr 51 min 18 sec) 
Heartbeat CPU 0 instructions: 88000000 cycles: 100526379 heartbeat IPC: 0.668799 cumulative IPC: 0.823594 (Simulation time: 0 hr 51 min 53 sec) 
Heartbeat CPU 0 instructions: 89000002 cycles: 102022007 heartbeat IPC: 0.668617 cumulative IPC: 0.821185 (Simulation time: 0 hr 52 min 28 sec) 
Heartbeat CPU 0 instructions: 90000000 cycles: 103506342 heartbeat IPC: 0.673701 cumulative IPC: 0.818944 (Simulation time: 0 hr 53 min 3 sec) 
Heartbeat CPU 0 instructions: 91000000 cycles: 104989961 heartbeat IPC: 0.674028 cumulative IPC: 0.816776 (Simulation time: 0 hr 53 min 35 sec) 
Heartbeat CPU 0 instructions: 92000000 cycles: 106473802 heartbeat IPC: 0.673927 cumulative IPC: 0.81467 (Simulation time: 0 hr 54 min 4 sec) 
Heartbeat CPU 0 instructions: 93000000 cycles: 107963544 heartbeat IPC: 0.671257 cumulative IPC: 0.812578 (Simulation time: 0 hr 54 min 31 sec) 
Heartbeat CPU 0 instructions: 94000003 cycles: 109457398 heartbeat IPC: 0.669411 cumulative IPC: 0.810514 (Simulation time: 0 hr 54 min 57 sec) 
Heartbeat CPU 0 instructions: 95000000 cycles: 110953201 heartbeat IPC: 0.668535 cumulative IPC: 0.808494 (Simulation time: 0 hr 55 min 23 sec) 
Heartbeat CPU 0 instructions: 96000000 cycles: 112447150 heartbeat IPC: 0.669367 cumulative IPC: 0.806545 (Simulation time: 0 hr 55 min 50 sec) 
Heartbeat CPU 0 instructions: 97000001 cycles: 113942699 heartbeat IPC: 0.668651 cumulative IPC: 0.804638 (Simulation time: 0 hr 56 min 15 sec) 
Heartbeat CPU 0 instructions: 98000003 cycles: 115438054 heartbeat IPC: 0.668739 cumulative IPC: 0.802784 (Simulation time: 0 hr 56 min 40 sec) 
Heartbeat CPU 0 instructions: 99000000 cycles: 116927157 heartbeat IPC: 0.671543 cumulative IPC: 0.801025 (Simulation time: 0 hr 57 min 5 sec) 
Heartbeat CPU 0 instructions: 100000000 cycles: 118410772 heartbeat IPC: 0.674029 cumulative IPC: 0.799352 (Simulation time: 0 hr 57 min 29 sec) 
Heartbeat CPU 0 instructions: 101000000 cycles: 119893980 heartbeat IPC: 0.674214 cumulative IPC: 0.797724 (Simulation time: 0 hr 57 min 51 sec) 
Heartbeat CPU 0 instructions: 102000003 cycles: 121377566 heartbeat IPC: 0.674044 cumulative IPC: 0.796137 (Simulation time: 0 hr 58 min 12 sec) 
Heartbeat CPU 0 instructions: 103000003 cycles: 122873825 heartbeat IPC: 0.668333 cumulative IPC: 0.794503 (Simulation time: 0 hr 58 min 34 sec) 
Heartbeat CPU 0 instructions: 104000000 cycles: 124368356 heartbeat IPC: 0.669104 cumulative IPC: 0.792922 (Simulation time: 0 hr 58 min 55 sec) 
Heartbeat CPU 0 instructions: 105000000 cycles: 125863167 heartbeat IPC: 0.668981 cumulative IPC: 0.791379 (Simulation time: 0 hr 59 min 16 sec) 
Heartbeat CPU 0 instructions: 106000000 cycles: 127358228 heartbeat IPC: 0.668869 cumulative IPC: 0.789872 (Simulation time: 0 hr 59 min 36 sec) 
Heartbeat CPU 0 instructions: 107000000 cycles: 128854073 heartbeat IPC: 0.668518 cumulative IPC: 0.788396 (Simulation time: 0 hr 59 min 55 sec) 
Heartbeat CPU 0 instructions: 108000000 cycles: 130349655 heartbeat IPC: 0.668636 cumulative IPC: 0.786958 (Simulation time: 1 hr 0 min 16 sec) 
Heartbeat CPU 0 instructions: 109000003 cycles: 131832515 heartbeat IPC: 0.674375 cumulative IPC: 0.785633 (Simulation time: 1 hr 0 min 34 sec) 
Heartbeat CPU 0 instructions: 110000001 cycles: 133315711 heartbeat IPC: 0.674218 cumulative IPC: 0.784337 (Simulation time: 1 hr 0 min 52 sec) 
Finished CPU 0 instructions: 100000000 cycles: 127496202 cummulative IPC: 0.784337 (Simulation time: 1 hr 0 min 52 sec) 

ChampSim completed all CPUs

Region of Interest Statistics

CPU 0 cummulative IPC: 0.784337 instructions: 100000000 cycles: 127496202
LLC TOTAL     ACCESS:    1495362  HIT:     493468  MISS:    1001894
LLC LOAD      ACCESS:      89184  HIT:      25350  MISS:      63834
LLC RFO       ACCESS:     219210  HIT:      42187  MISS:     177023
LLC PREFETCH  ACCESS:     750822  HIT:     168265  MISS:     582557
LLC WRITEBACK ACCESS:     436146  HIT:     257666  MISS:     178480
Insertion Distribution: 
	LOAD 4088 0 12294 52223 
	RFO 45688 0 59840 146598 
	PREF 0 3850 110455 631261 
	WRITEBACK 0 0 0 233807 
Total Prefetch Downgrades: 3133
