
*** ChampSim Multicore Out-of-Order Simulator ***

Warmup Instructions: 10000000
Simulation Instructions: 100000000
Configuration: 2
Number of CPUs: 1
LLC sets: 2048
LLC ways: 16
Off-chip DRAM Channels: 1 Width: 64-bit Data Rate: 1600 MT/s

CPU 0 runs /datasets/cs240c-wi22-a00-public/data/Assignment2-gz/sphinx3_883B.trace.gz
CPU 0 L1D next line prefetcher
CPU 0 L2C IP-based stride prefetcher
Initialize SRRIP state
Heartbeat CPU 0 instructions: 1000003 cycles: 414388 heartbeat IPC: 2.4132 cumulative IPC: 2.4132 (Simulation time: 0 hr 0 min 32 sec) 
Heartbeat CPU 0 instructions: 2000000 cycles: 823942 heartbeat IPC: 2.44167 cumulative IPC: 2.42736 (Simulation time: 0 hr 1 min 3 sec) 
Heartbeat CPU 0 instructions: 3000003 cycles: 1298779 heartbeat IPC: 2.10599 cumulative IPC: 2.30986 (Simulation time: 0 hr 1 min 31 sec) 
Heartbeat CPU 0 instructions: 4000000 cycles: 1637669 heartbeat IPC: 2.9508 cumulative IPC: 2.4425 (Simulation time: 0 hr 2 min 0 sec) 
Heartbeat CPU 0 instructions: 5000000 cycles: 1992327 heartbeat IPC: 2.81962 cumulative IPC: 2.50963 (Simulation time: 0 hr 2 min 29 sec) 
Heartbeat CPU 0 instructions: 6000003 cycles: 2406745 heartbeat IPC: 2.41303 cumulative IPC: 2.49299 (Simulation time: 0 hr 3 min 1 sec) 
Heartbeat CPU 0 instructions: 7000002 cycles: 2815510 heartbeat IPC: 2.44639 cumulative IPC: 2.48623 (Simulation time: 0 hr 3 min 32 sec) 
Heartbeat CPU 0 instructions: 8000000 cycles: 3291668 heartbeat IPC: 2.10014 cumulative IPC: 2.43038 (Simulation time: 0 hr 4 min 3 sec) 
Heartbeat CPU 0 instructions: 9000001 cycles: 3630667 heartbeat IPC: 2.94986 cumulative IPC: 2.47888 (Simulation time: 0 hr 4 min 31 sec) 
Heartbeat CPU 0 instructions: 10000000 cycles: 3984759 heartbeat IPC: 2.82412 cumulative IPC: 2.50956 (Simulation time: 0 hr 4 min 59 sec) 

Warmup complete CPU 0 instructions: 10000004 cycles: 3984760 (Simulation time: 0 hr 4 min 59 sec) 

Heartbeat CPU 0 instructions: 11000002 cycles: 5668157 heartbeat IPC: 0.594038 cumulative IPC: 0.594036 (Simulation time: 0 hr 5 min 34 sec) 
Heartbeat CPU 0 instructions: 12000000 cycles: 7283835 heartbeat IPC: 0.618934 cumulative IPC: 0.606229 (Simulation time: 0 hr 6 min 8 sec) 
Heartbeat CPU 0 instructions: 13000001 cycles: 8444333 heartbeat IPC: 0.8617 cumulative IPC: 0.672709 (Simulation time: 0 hr 6 min 36 sec) 
Heartbeat CPU 0 instructions: 14000002 cycles: 9179312 heartbeat IPC: 1.36058 cumulative IPC: 0.770037 (Simulation time: 0 hr 7 min 6 sec) 
Heartbeat CPU 0 instructions: 15000000 cycles: 10076243 heartbeat IPC: 1.11491 cumulative IPC: 0.820818 (Simulation time: 0 hr 7 min 35 sec) 
Heartbeat CPU 0 instructions: 16000000 cycles: 11746809 heartbeat IPC: 0.598599 cumulative IPC: 0.772991 (Simulation time: 0 hr 8 min 9 sec) 
Heartbeat CPU 0 instructions: 17000000 cycles: 13325571 heartbeat IPC: 0.633408 cumulative IPC: 0.749399 (Simulation time: 0 hr 8 min 41 sec) 
Heartbeat CPU 0 instructions: 18000002 cycles: 14585850 heartbeat IPC: 0.793477 cumulative IPC: 0.754639 (Simulation time: 0 hr 9 min 10 sec) 
Heartbeat CPU 0 instructions: 19000002 cycles: 15403614 heartbeat IPC: 1.22285 cumulative IPC: 0.78817 (Simulation time: 0 hr 9 min 38 sec) 
Heartbeat CPU 0 instructions: 20000000 cycles: 16197191 heartbeat IPC: 1.26011 cumulative IPC: 0.818837 (Simulation time: 0 hr 10 min 8 sec) 
Heartbeat CPU 0 instructions: 21000000 cycles: 17806392 heartbeat IPC: 0.621426 cumulative IPC: 0.795854 (Simulation time: 0 hr 10 min 43 sec) 
Heartbeat CPU 0 instructions: 22000002 cycles: 19418790 heartbeat IPC: 0.620196 cumulative IPC: 0.777503 (Simulation time: 0 hr 11 min 17 sec) 
Heartbeat CPU 0 instructions: 23000001 cycles: 20921290 heartbeat IPC: 0.665557 cumulative IPC: 0.767571 (Simulation time: 0 hr 11 min 48 sec) 
Heartbeat CPU 0 instructions: 24000000 cycles: 21790493 heartbeat IPC: 1.15048 cumulative IPC: 0.786263 (Simulation time: 0 hr 12 min 16 sec) 
Heartbeat CPU 0 instructions: 25000001 cycles: 22561502 heartbeat IPC: 1.297 cumulative IPC: 0.807461 (Simulation time: 0 hr 12 min 45 sec) 
Heartbeat CPU 0 instructions: 26000001 cycles: 23821560 heartbeat IPC: 0.793614 cumulative IPC: 0.806582 (Simulation time: 0 hr 13 min 16 sec) 
Heartbeat CPU 0 instructions: 27000001 cycles: 25440167 heartbeat IPC: 0.617815 cumulative IPC: 0.792341 (Simulation time: 0 hr 13 min 51 sec) 
Heartbeat CPU 0 instructions: 28000000 cycles: 27014127 heartbeat IPC: 0.635339 cumulative IPC: 0.781611 (Simulation time: 0 hr 14 min 24 sec) 
Heartbeat CPU 0 instructions: 29000000 cycles: 28009148 heartbeat IPC: 1.005 cumulative IPC: 0.790863 (Simulation time: 0 hr 14 min 58 sec) 
Heartbeat CPU 0 instructions: 30000002 cycles: 28810735 heartbeat IPC: 1.24753 cumulative IPC: 0.805608 (Simulation time: 0 hr 15 min 30 sec) 
Heartbeat CPU 0 instructions: 31000003 cycles: 29923260 heartbeat IPC: 0.898857 cumulative IPC: 0.809607 (Simulation time: 0 hr 16 min 2 sec) 
Heartbeat CPU 0 instructions: 32000000 cycles: 31527443 heartbeat IPC: 0.623368 cumulative IPC: 0.79876 (Simulation time: 0 hr 16 min 37 sec) 
Heartbeat CPU 0 instructions: 33000000 cycles: 33065729 heartbeat IPC: 0.650074 cumulative IPC: 0.790895 (Simulation time: 0 hr 17 min 12 sec) 
Heartbeat CPU 0 instructions: 34000000 cycles: 34159804 heartbeat IPC: 0.914014 cumulative IPC: 0.795359 (Simulation time: 0 hr 17 min 42 sec) 
Heartbeat CPU 0 instructions: 35000003 cycles: 34966899 heartbeat IPC: 1.23902 cumulative IPC: 0.806916 (Simulation time: 0 hr 18 min 13 sec) 
Heartbeat CPU 0 instructions: 36000000 cycles: 36023408 heartbeat IPC: 0.946511 cumulative IPC: 0.81152 (Simulation time: 0 hr 18 min 42 sec) 
Heartbeat CPU 0 instructions: 37000001 cycles: 37632955 heartbeat IPC: 0.621293 cumulative IPC: 0.80242 (Simulation time: 0 hr 19 min 12 sec) 
Heartbeat CPU 0 instructions: 38000000 cycles: 39177985 heartbeat IPC: 0.647236 cumulative IPC: 0.795608 (Simulation time: 0 hr 19 min 41 sec) 
Heartbeat CPU 0 instructions: 39000003 cycles: 40250101 heartbeat IPC: 0.932738 cumulative IPC: 0.799662 (Simulation time: 0 hr 20 min 12 sec) 
Heartbeat CPU 0 instructions: 40000000 cycles: 41059345 heartbeat IPC: 1.23572 cumulative IPC: 0.80918 (Simulation time: 0 hr 20 min 39 sec) 
Heartbeat CPU 0 instructions: 41000003 cycles: 42112951 heartbeat IPC: 0.949124 cumulative IPC: 0.813047 (Simulation time: 0 hr 21 min 9 sec) 
Heartbeat CPU 0 instructions: 42000000 cycles: 43735648 heartbeat IPC: 0.616256 cumulative IPC: 0.805013 (Simulation time: 0 hr 21 min 41 sec) 
Heartbeat CPU 0 instructions: 43000003 cycles: 45308110 heartbeat IPC: 0.635947 cumulative IPC: 0.79858 (Simulation time: 0 hr 22 min 13 sec) 
Heartbeat CPU 0 instructions: 44000000 cycles: 46325306 heartbeat IPC: 0.983092 cumulative IPC: 0.803013 (Simulation time: 0 hr 22 min 43 sec) 
Heartbeat CPU 0 instructions: 45000002 cycles: 47112259 heartbeat IPC: 1.27073 cumulative IPC: 0.811547 (Simulation time: 0 hr 23 min 12 sec) 
Heartbeat CPU 0 instructions: 46000001 cycles: 48192791 heartbeat IPC: 0.925469 cumulative IPC: 0.814332 (Simulation time: 0 hr 23 min 44 sec) 
Heartbeat CPU 0 instructions: 47000002 cycles: 49797833 heartbeat IPC: 0.623037 cumulative IPC: 0.80763 (Simulation time: 0 hr 24 min 17 sec) 
Heartbeat CPU 0 instructions: 48000000 cycles: 51370299 heartbeat IPC: 0.635943 cumulative IPC: 0.801932 (Simulation time: 0 hr 24 min 48 sec) 
Heartbeat CPU 0 instructions: 49000001 cycles: 52313391 heartbeat IPC: 1.06034 cumulative IPC: 0.806975 (Simulation time: 0 hr 25 min 17 sec) 
Heartbeat CPU 0 instructions: 50000000 cycles: 53135436 heartbeat IPC: 1.21648 cumulative IPC: 0.813824 (Simulation time: 0 hr 25 min 46 sec) 
Heartbeat CPU 0 instructions: 51000003 cycles: 54263820 heartbeat IPC: 0.886226 cumulative IPC: 0.815449 (Simulation time: 0 hr 26 min 17 sec) 
Heartbeat CPU 0 instructions: 52000000 cycles: 55892426 heartbeat IPC: 0.61402 cumulative IPC: 0.809129 (Simulation time: 0 hr 26 min 48 sec) 
Heartbeat CPU 0 instructions: 53000000 cycles: 57652328 heartbeat IPC: 0.568213 cumulative IPC: 0.801229 (Simulation time: 0 hr 27 min 19 sec) 
Heartbeat CPU 0 instructions: 54000003 cycles: 58929574 heartbeat IPC: 0.782937 cumulative IPC: 0.800803 (Simulation time: 0 hr 27 min 49 sec) 
Heartbeat CPU 0 instructions: 55000003 cycles: 59816589 heartbeat IPC: 1.12738 cumulative IPC: 0.805992 (Simulation time: 0 hr 28 min 18 sec) 
Heartbeat CPU 0 instructions: 56000000 cycles: 60699767 heartbeat IPC: 1.13227 cumulative IPC: 0.811073 (Simulation time: 0 hr 28 min 45 sec) 
Heartbeat CPU 0 instructions: 57000002 cycles: 61871938 heartbeat IPC: 0.85312 cumulative IPC: 0.811924 (Simulation time: 0 hr 29 min 17 sec) 
Heartbeat CPU 0 instructions: 58000001 cycles: 62917991 heartbeat IPC: 0.955974 cumulative IPC: 0.814481 (Simulation time: 0 hr 29 min 46 sec) 
Heartbeat CPU 0 instructions: 59000003 cycles: 63771182 heartbeat IPC: 1.17207 cumulative IPC: 0.819584 (Simulation time: 0 hr 30 min 15 sec) 
Heartbeat CPU 0 instructions: 60000000 cycles: 64655598 heartbeat IPC: 1.13069 cumulative IPC: 0.824119 (Simulation time: 0 hr 30 min 44 sec) 
Heartbeat CPU 0 instructions: 61000001 cycles: 65837189 heartbeat IPC: 0.846317 cumulative IPC: 0.824543 (Simulation time: 0 hr 31 min 13 sec) 
Heartbeat CPU 0 instructions: 62000001 cycles: 66692563 heartbeat IPC: 1.16908 cumulative IPC: 0.829243 (Simulation time: 0 hr 31 min 42 sec) 
Heartbeat CPU 0 instructions: 63000003 cycles: 67524771 heartbeat IPC: 1.20163 cumulative IPC: 0.83412 (Simulation time: 0 hr 32 min 10 sec) 
Heartbeat CPU 0 instructions: 64000000 cycles: 68754623 heartbeat IPC: 0.813104 cumulative IPC: 0.833721 (Simulation time: 0 hr 32 min 40 sec) 
Heartbeat CPU 0 instructions: 65000003 cycles: 69620000 heartbeat IPC: 1.15557 cumulative IPC: 0.837964 (Simulation time: 0 hr 33 min 6 sec) 
Heartbeat CPU 0 instructions: 66000002 cycles: 70466830 heartbeat IPC: 1.18087 cumulative IPC: 0.842332 (Simulation time: 0 hr 33 min 34 sec) 
Heartbeat CPU 0 instructions: 67000000 cycles: 71697347 heartbeat IPC: 0.812665 cumulative IPC: 0.841793 (Simulation time: 0 hr 34 min 3 sec) 
Heartbeat CPU 0 instructions: 68000000 cycles: 73330965 heartbeat IPC: 0.612138 cumulative IPC: 0.836383 (Simulation time: 0 hr 34 min 35 sec) 
Heartbeat CPU 0 instructions: 69000003 cycles: 74167915 heartbeat IPC: 1.19482 cumulative IPC: 0.840658 (Simulation time: 0 hr 35 min 4 sec) 
Heartbeat CPU 0 instructions: 70000000 cycles: 75031592 heartbeat IPC: 1.15784 cumulative IPC: 0.844513 (Simulation time: 0 hr 35 min 32 sec) 
Heartbeat CPU 0 instructions: 71000000 cycles: 76168160 heartbeat IPC: 0.879842 cumulative IPC: 0.84507 (Simulation time: 0 hr 36 min 1 sec) 
Heartbeat CPU 0 instructions: 72000000 cycles: 77618111 heartbeat IPC: 0.689678 cumulative IPC: 0.84201 (Simulation time: 0 hr 36 min 31 sec) 
Heartbeat CPU 0 instructions: 73000000 cycles: 78441942 heartbeat IPC: 1.21384 cumulative IPC: 0.846124 (Simulation time: 0 hr 36 min 59 sec) 
Heartbeat CPU 0 instructions: 74000000 cycles: 79264580 heartbeat IPC: 1.2156 cumulative IPC: 0.850161 (Simulation time: 0 hr 37 min 29 sec) 
Heartbeat CPU 0 instructions: 75000000 cycles: 80449161 heartbeat IPC: 0.84418 cumulative IPC: 0.850069 (Simulation time: 0 hr 38 min 0 sec) 
Heartbeat CPU 0 instructions: 76000000 cycles: 81733631 heartbeat IPC: 0.778531 cumulative IPC: 0.848887 (Simulation time: 0 hr 38 min 31 sec) 
Heartbeat CPU 0 instructions: 77000003 cycles: 82562963 heartbeat IPC: 1.20579 cumulative IPC: 0.852654 (Simulation time: 0 hr 39 min 0 sec) 
Heartbeat CPU 0 instructions: 78000000 cycles: 83392942 heartbeat IPC: 1.20485 cumulative IPC: 0.856335 (Simulation time: 0 hr 39 min 31 sec) 
Heartbeat CPU 0 instructions: 79000001 cycles: 84721940 heartbeat IPC: 0.752447 cumulative IPC: 0.854625 (Simulation time: 0 hr 40 min 2 sec) 
Heartbeat CPU 0 instructions: 80000000 cycles: 85872499 heartbeat IPC: 0.869142 cumulative IPC: 0.854829 (Simulation time: 0 hr 40 min 35 sec) 
Heartbeat CPU 0 instructions: 81000000 cycles: 86664617 heartbeat IPC: 1.26244 cumulative IPC: 0.858734 (Simulation time: 0 hr 41 min 7 sec) 
Heartbeat CPU 0 instructions: 82000000 cycles: 87488423 heartbeat IPC: 1.21388 cumulative IPC: 0.862238 (Simulation time: 0 hr 41 min 35 sec) 
Heartbeat CPU 0 instructions: 83000000 cycles: 88934082 heartbeat IPC: 0.691726 cumulative IPC: 0.859336 (Simulation time: 0 hr 42 min 9 sec) 
Heartbeat CPU 0 instructions: 84000000 cycles: 89828775 heartbeat IPC: 1.1177 cumulative IPC: 0.862029 (Simulation time: 0 hr 42 min 38 sec) 
Heartbeat CPU 0 instructions: 85000001 cycles: 90605040 heartbeat IPC: 1.28822 cumulative IPC: 0.865848 (Simulation time: 0 hr 43 min 7 sec) 
Heartbeat CPU 0 instructions: 86000001 cycles: 91638380 heartbeat IPC: 0.967736 cumulative IPC: 0.867049 (Simulation time: 0 hr 43 min 37 sec) 
Heartbeat CPU 0 instructions: 87000000 cycles: 92832188 heartbeat IPC: 0.837655 cumulative IPC: 0.866654 (Simulation time: 0 hr 44 min 10 sec) 
Heartbeat CPU 0 instructions: 88000000 cycles: 93617535 heartbeat IPC: 1.27332 cumulative IPC: 0.870217 (Simulation time: 0 hr 44 min 38 sec) 
Heartbeat CPU 0 instructions: 89000000 cycles: 94433341 heartbeat IPC: 1.22578 cumulative IPC: 0.873424 (Simulation time: 0 hr 45 min 6 sec) 
Heartbeat CPU 0 instructions: 90000000 cycles: 95754900 heartbeat IPC: 0.756682 cumulative IPC: 0.871743 (Simulation time: 0 hr 45 min 37 sec) 
Heartbeat CPU 0 instructions: 91000003 cycles: 97006468 heartbeat IPC: 0.799 cumulative IPC: 0.870764 (Simulation time: 0 hr 46 min 9 sec) 
Heartbeat CPU 0 instructions: 92000000 cycles: 97960129 heartbeat IPC: 1.04859 cumulative IPC: 0.872569 (Simulation time: 0 hr 46 min 37 sec) 
Heartbeat CPU 0 instructions: 93000000 cycles: 98743089 heartbeat IPC: 1.2772 cumulative IPC: 0.875912 (Simulation time: 0 hr 47 min 7 sec) 
Heartbeat CPU 0 instructions: 94000002 cycles: 99567961 heartbeat IPC: 1.21231 cumulative IPC: 0.878815 (Simulation time: 0 hr 47 min 36 sec) 
Heartbeat CPU 0 instructions: 95000001 cycles: 100960136 heartbeat IPC: 0.7183 cumulative IPC: 0.876511 (Simulation time: 0 hr 48 min 6 sec) 
Heartbeat CPU 0 instructions: 96000000 cycles: 101787089 heartbeat IPC: 1.20926 cumulative IPC: 0.879325 (Simulation time: 0 hr 48 min 34 sec) 
Heartbeat CPU 0 instructions: 97000002 cycles: 102598495 heartbeat IPC: 1.23243 cumulative IPC: 0.88223 (Simulation time: 0 hr 49 min 0 sec) 
Heartbeat CPU 0 instructions: 98000003 cycles: 103787477 heartbeat IPC: 0.841056 cumulative IPC: 0.881739 (Simulation time: 0 hr 49 min 29 sec) 
Heartbeat CPU 0 instructions: 99000000 cycles: 104848407 heartbeat IPC: 0.942566 cumulative IPC: 0.882379 (Simulation time: 0 hr 49 min 56 sec) 
Heartbeat CPU 0 instructions: 100000000 cycles: 105634395 heartbeat IPC: 1.27228 cumulative IPC: 0.885394 (Simulation time: 0 hr 50 min 21 sec) 
Heartbeat CPU 0 instructions: 101000002 cycles: 106468284 heartbeat IPC: 1.1992 cumulative IPC: 0.887948 (Simulation time: 0 hr 50 min 48 sec) 
Heartbeat CPU 0 instructions: 102000003 cycles: 107958503 heartbeat IPC: 0.671043 cumulative IPC: 0.884839 (Simulation time: 0 hr 51 min 15 sec) 
Heartbeat CPU 0 instructions: 103000002 cycles: 108879929 heartbeat IPC: 1.08527 cumulative IPC: 0.886599 (Simulation time: 0 hr 51 min 40 sec) 
Heartbeat CPU 0 instructions: 104000000 cycles: 109689376 heartbeat IPC: 1.23541 cumulative IPC: 0.88927 (Simulation time: 0 hr 52 min 5 sec) 
Heartbeat CPU 0 instructions: 105000002 cycles: 110772886 heartbeat IPC: 0.922928 cumulative IPC: 0.889612 (Simulation time: 0 hr 52 min 32 sec) 
Heartbeat CPU 0 instructions: 106000003 cycles: 112244071 heartbeat IPC: 0.679725 cumulative IPC: 0.88676 (Simulation time: 0 hr 53 min 1 sec) 
Heartbeat CPU 0 instructions: 107000001 cycles: 113076480 heartbeat IPC: 1.20133 cumulative IPC: 0.88916 (Simulation time: 0 hr 53 min 26 sec) 
Heartbeat CPU 0 instructions: 108000000 cycles: 113882708 heartbeat IPC: 1.24034 cumulative IPC: 0.891736 (Simulation time: 0 hr 53 min 49 sec) 
Heartbeat CPU 0 instructions: 109000001 cycles: 115035828 heartbeat IPC: 0.867213 cumulative IPC: 0.891482 (Simulation time: 0 hr 54 min 11 sec) 
Heartbeat CPU 0 instructions: 110000000 cycles: 116408960 heartbeat IPC: 0.728261 cumulative IPC: 0.889488 (Simulation time: 0 hr 54 min 34 sec) 
Finished CPU 0 instructions: 100000000 cycles: 112424201 cummulative IPC: 0.889488 (Simulation time: 0 hr 54 min 34 sec) 

ChampSim completed all CPUs

Region of Interest Statistics

CPU 0 cummulative IPC: 0.889488 instructions: 100000000 cycles: 112424201
LLC TOTAL     ACCESS:    1795571  HIT:     737501  MISS:    1058070
LLC LOAD      ACCESS:     314410  HIT:     225850  MISS:      88560
LLC RFO       ACCESS:      99894  HIT:      78861  MISS:      21033
LLC PREFETCH  ACCESS:    1239849  HIT:     300409  MISS:     939440
LLC WRITEBACK ACCESS:     141418  HIT:     132381  MISS:       9037
Insertion Distribution: 
	LOAD 11789 0 26537 74802 
	RFO 8261 0 6265 10420 
	PREF 0 4728 87982 955563 
	WRITEBACK 0 0 0 9960 
Total Prefetch Downgrades: 7134
