
*** ChampSim Multicore Out-of-Order Simulator ***

Warmup Instructions: 10000000
Simulation Instructions: 100000000
Configuration: 2
Number of CPUs: 1
LLC sets: 2048
LLC ways: 16
Off-chip DRAM Channels: 1 Width: 64-bit Data Rate: 1600 MT/s

CPU 0 runs /datasets/cs240c-wi22-a00-public/data/Assignment2-gz/astar_163B.trace.gz
CPU 0 L1D next line prefetcher
CPU 0 L2C IP-based stride prefetcher
Initialize SRRIP state
Heartbeat CPU 0 instructions: 1000002 cycles: 531212 heartbeat IPC: 1.88249 cumulative IPC: 1.88249 (Simulation time: 0 hr 0 min 35 sec) 
Heartbeat CPU 0 instructions: 2000003 cycles: 1060822 heartbeat IPC: 1.88818 cumulative IPC: 1.88533 (Simulation time: 0 hr 1 min 7 sec) 
Heartbeat CPU 0 instructions: 3000003 cycles: 1590855 heartbeat IPC: 1.88668 cumulative IPC: 1.88578 (Simulation time: 0 hr 1 min 40 sec) 
Heartbeat CPU 0 instructions: 4000000 cycles: 2120959 heartbeat IPC: 1.88642 cumulative IPC: 1.88594 (Simulation time: 0 hr 2 min 12 sec) 
Heartbeat CPU 0 instructions: 5000000 cycles: 2652871 heartbeat IPC: 1.88001 cumulative IPC: 1.88475 (Simulation time: 0 hr 2 min 45 sec) 
Heartbeat CPU 0 instructions: 6000002 cycles: 3181384 heartbeat IPC: 1.8921 cumulative IPC: 1.88597 (Simulation time: 0 hr 3 min 18 sec) 
Heartbeat CPU 0 instructions: 7000003 cycles: 3710918 heartbeat IPC: 1.88845 cumulative IPC: 1.88633 (Simulation time: 0 hr 3 min 55 sec) 
Heartbeat CPU 0 instructions: 8000000 cycles: 4240201 heartbeat IPC: 1.88934 cumulative IPC: 1.8867 (Simulation time: 0 hr 4 min 28 sec) 
Heartbeat CPU 0 instructions: 9000000 cycles: 4771208 heartbeat IPC: 1.88321 cumulative IPC: 1.88631 (Simulation time: 0 hr 5 min 1 sec) 
Heartbeat CPU 0 instructions: 10000001 cycles: 5301282 heartbeat IPC: 1.88653 cumulative IPC: 1.88634 (Simulation time: 0 hr 5 min 33 sec) 

Warmup complete CPU 0 instructions: 10000001 cycles: 5301282 (Simulation time: 0 hr 5 min 33 sec) 

Heartbeat CPU 0 instructions: 11000003 cycles: 7518901 heartbeat IPC: 0.450935 cumulative IPC: 0.450935 (Simulation time: 0 hr 6 min 10 sec) 
Heartbeat CPU 0 instructions: 12000000 cycles: 9762323 heartbeat IPC: 0.445746 cumulative IPC: 0.448326 (Simulation time: 0 hr 6 min 50 sec) 
Heartbeat CPU 0 instructions: 13000000 cycles: 12013378 heartbeat IPC: 0.444236 cumulative IPC: 0.446954 (Simulation time: 0 hr 7 min 27 sec) 
Heartbeat CPU 0 instructions: 14000002 cycles: 14267849 heartbeat IPC: 0.443564 cumulative IPC: 0.446102 (Simulation time: 0 hr 8 min 6 sec) 
Heartbeat CPU 0 instructions: 15000000 cycles: 16594904 heartbeat IPC: 0.429727 cumulative IPC: 0.442728 (Simulation time: 0 hr 8 min 42 sec) 
Heartbeat CPU 0 instructions: 16000000 cycles: 18954512 heartbeat IPC: 0.423799 cumulative IPC: 0.439456 (Simulation time: 0 hr 9 min 20 sec) 
Heartbeat CPU 0 instructions: 17000003 cycles: 21271620 heartbeat IPC: 0.431574 cumulative IPC: 0.438313 (Simulation time: 0 hr 9 min 58 sec) 
Heartbeat CPU 0 instructions: 18000002 cycles: 23576704 heartbeat IPC: 0.433823 cumulative IPC: 0.437746 (Simulation time: 0 hr 10 min 34 sec) 
Heartbeat CPU 0 instructions: 19000000 cycles: 25879945 heartbeat IPC: 0.43417 cumulative IPC: 0.437346 (Simulation time: 0 hr 11 min 12 sec) 
Heartbeat CPU 0 instructions: 20000000 cycles: 28182268 heartbeat IPC: 0.434344 cumulative IPC: 0.437044 (Simulation time: 0 hr 11 min 50 sec) 
Heartbeat CPU 0 instructions: 21000003 cycles: 30530541 heartbeat IPC: 0.425846 cumulative IPC: 0.436002 (Simulation time: 0 hr 12 min 25 sec) 
Heartbeat CPU 0 instructions: 22000002 cycles: 32989235 heartbeat IPC: 0.40672 cumulative IPC: 0.433402 (Simulation time: 0 hr 13 min 1 sec) 
Heartbeat CPU 0 instructions: 23000001 cycles: 35407445 heartbeat IPC: 0.413529 cumulative IPC: 0.431805 (Simulation time: 0 hr 13 min 38 sec) 
Heartbeat CPU 0 instructions: 24000000 cycles: 37841308 heartbeat IPC: 0.410869 cumulative IPC: 0.430239 (Simulation time: 0 hr 14 min 13 sec) 
Heartbeat CPU 0 instructions: 25000003 cycles: 40014313 heartbeat IPC: 0.460194 cumulative IPC: 0.432114 (Simulation time: 0 hr 14 min 47 sec) 
Heartbeat CPU 0 instructions: 26000003 cycles: 41764138 heartbeat IPC: 0.571486 cumulative IPC: 0.438803 (Simulation time: 0 hr 15 min 30 sec) 
Heartbeat CPU 0 instructions: 27000000 cycles: 43588495 heartbeat IPC: 0.548137 cumulative IPC: 0.444012 (Simulation time: 0 hr 16 min 10 sec) 
Heartbeat CPU 0 instructions: 28000000 cycles: 45528803 heartbeat IPC: 0.515382 cumulative IPC: 0.447455 (Simulation time: 0 hr 16 min 46 sec) 
Heartbeat CPU 0 instructions: 29000000 cycles: 47463683 heartbeat IPC: 0.516828 cumulative IPC: 0.450638 (Simulation time: 0 hr 17 min 22 sec) 
Heartbeat CPU 0 instructions: 30000000 cycles: 49385726 heartbeat IPC: 0.52028 cumulative IPC: 0.453675 (Simulation time: 0 hr 17 min 59 sec) 
Heartbeat CPU 0 instructions: 31000001 cycles: 51252054 heartbeat IPC: 0.535812 cumulative IPC: 0.457011 (Simulation time: 0 hr 18 min 36 sec) 
Heartbeat CPU 0 instructions: 32000000 cycles: 53157048 heartbeat IPC: 0.524935 cumulative IPC: 0.459715 (Simulation time: 0 hr 19 min 15 sec) 
Heartbeat CPU 0 instructions: 33000000 cycles: 55044443 heartbeat IPC: 0.529831 cumulative IPC: 0.462375 (Simulation time: 0 hr 19 min 54 sec) 
Heartbeat CPU 0 instructions: 34000001 cycles: 56906878 heartbeat IPC: 0.536932 cumulative IPC: 0.465066 (Simulation time: 0 hr 20 min 35 sec) 
Heartbeat CPU 0 instructions: 35000001 cycles: 58783300 heartbeat IPC: 0.532929 cumulative IPC: 0.467447 (Simulation time: 0 hr 21 min 14 sec) 
Heartbeat CPU 0 instructions: 36000000 cycles: 60646205 heartbeat IPC: 0.536795 cumulative IPC: 0.469781 (Simulation time: 0 hr 21 min 50 sec) 
Heartbeat CPU 0 instructions: 37000000 cycles: 62594106 heartbeat IPC: 0.513373 cumulative IPC: 0.471263 (Simulation time: 0 hr 22 min 26 sec) 
Heartbeat CPU 0 instructions: 38000000 cycles: 64489993 heartbeat IPC: 0.527458 cumulative IPC: 0.473063 (Simulation time: 0 hr 23 min 3 sec) 
Heartbeat CPU 0 instructions: 39000001 cycles: 66345782 heartbeat IPC: 0.538855 cumulative IPC: 0.475063 (Simulation time: 0 hr 23 min 41 sec) 
Heartbeat CPU 0 instructions: 40000000 cycles: 68226744 heartbeat IPC: 0.531642 cumulative IPC: 0.476755 (Simulation time: 0 hr 24 min 17 sec) 
Heartbeat CPU 0 instructions: 41000001 cycles: 70147542 heartbeat IPC: 0.520617 cumulative IPC: 0.478054 (Simulation time: 0 hr 24 min 52 sec) 
Heartbeat CPU 0 instructions: 42000001 cycles: 72136333 heartbeat IPC: 0.502818 cumulative IPC: 0.478791 (Simulation time: 0 hr 25 min 26 sec) 
Heartbeat CPU 0 instructions: 43000001 cycles: 74161520 heartbeat IPC: 0.493782 cumulative IPC: 0.479232 (Simulation time: 0 hr 26 min 1 sec) 
Heartbeat CPU 0 instructions: 44000000 cycles: 76214705 heartbeat IPC: 0.487048 cumulative IPC: 0.479458 (Simulation time: 0 hr 26 min 35 sec) 
Heartbeat CPU 0 instructions: 45000000 cycles: 78289053 heartbeat IPC: 0.482079 cumulative IPC: 0.479532 (Simulation time: 0 hr 27 min 8 sec) 
Heartbeat CPU 0 instructions: 46000002 cycles: 80192022 heartbeat IPC: 0.525496 cumulative IPC: 0.4807 (Simulation time: 0 hr 27 min 47 sec) 
Heartbeat CPU 0 instructions: 47000000 cycles: 82112760 heartbeat IPC: 0.520632 cumulative IPC: 0.481699 (Simulation time: 0 hr 28 min 28 sec) 
Heartbeat CPU 0 instructions: 48000000 cycles: 84055264 heartbeat IPC: 0.514799 cumulative IPC: 0.482515 (Simulation time: 0 hr 29 min 7 sec) 
Heartbeat CPU 0 instructions: 49000003 cycles: 86007352 heartbeat IPC: 0.512274 cumulative IPC: 0.483235 (Simulation time: 0 hr 29 min 46 sec) 
Heartbeat CPU 0 instructions: 50000001 cycles: 87918214 heartbeat IPC: 0.523323 cumulative IPC: 0.484162 (Simulation time: 0 hr 30 min 21 sec) 
Heartbeat CPU 0 instructions: 51000003 cycles: 89845341 heartbeat IPC: 0.518908 cumulative IPC: 0.484954 (Simulation time: 0 hr 31 min 1 sec) 
Heartbeat CPU 0 instructions: 52000000 cycles: 91854506 heartbeat IPC: 0.497718 cumulative IPC: 0.485251 (Simulation time: 0 hr 31 min 38 sec) 
Heartbeat CPU 0 instructions: 53000001 cycles: 93809667 heartbeat IPC: 0.511467 cumulative IPC: 0.48583 (Simulation time: 0 hr 32 min 13 sec) 
Heartbeat CPU 0 instructions: 54000003 cycles: 95699014 heartbeat IPC: 0.529284 cumulative IPC: 0.486738 (Simulation time: 0 hr 32 min 51 sec) 
Heartbeat CPU 0 instructions: 55000000 cycles: 97565887 heartbeat IPC: 0.535653 cumulative IPC: 0.487728 (Simulation time: 0 hr 33 min 31 sec) 
Heartbeat CPU 0 instructions: 56000000 cycles: 99453609 heartbeat IPC: 0.529739 cumulative IPC: 0.48857 (Simulation time: 0 hr 34 min 10 sec) 
Heartbeat CPU 0 instructions: 57000000 cycles: 101315008 heartbeat IPC: 0.53723 cumulative IPC: 0.489513 (Simulation time: 0 hr 34 min 49 sec) 
Heartbeat CPU 0 instructions: 58000001 cycles: 103231108 heartbeat IPC: 0.521894 cumulative IPC: 0.490147 (Simulation time: 0 hr 35 min 26 sec) 
Heartbeat CPU 0 instructions: 59000003 cycles: 105122906 heartbeat IPC: 0.528599 cumulative IPC: 0.490876 (Simulation time: 0 hr 36 min 4 sec) 
Heartbeat CPU 0 instructions: 60000000 cycles: 107007195 heartbeat IPC: 0.530703 cumulative IPC: 0.491613 (Simulation time: 0 hr 36 min 42 sec) 
Heartbeat CPU 0 instructions: 61000002 cycles: 108902585 heartbeat IPC: 0.527597 cumulative IPC: 0.492272 (Simulation time: 0 hr 37 min 24 sec) 
Heartbeat CPU 0 instructions: 62000001 cycles: 110808567 heartbeat IPC: 0.524663 cumulative IPC: 0.492857 (Simulation time: 0 hr 38 min 2 sec) 
Heartbeat CPU 0 instructions: 63000001 cycles: 112873810 heartbeat IPC: 0.484205 cumulative IPC: 0.492691 (Simulation time: 0 hr 38 min 38 sec) 
Heartbeat CPU 0 instructions: 64000000 cycles: 114822170 heartbeat IPC: 0.513252 cumulative IPC: 0.493057 (Simulation time: 0 hr 39 min 16 sec) 
Heartbeat CPU 0 instructions: 65000000 cycles: 116759835 heartbeat IPC: 0.516085 cumulative IPC: 0.493457 (Simulation time: 0 hr 39 min 53 sec) 
Heartbeat CPU 0 instructions: 66000000 cycles: 118697852 heartbeat IPC: 0.515991 cumulative IPC: 0.493842 (Simulation time: 0 hr 40 min 30 sec) 
Heartbeat CPU 0 instructions: 67000003 cycles: 120620313 heartbeat IPC: 0.520168 cumulative IPC: 0.494281 (Simulation time: 0 hr 41 min 6 sec) 
Heartbeat CPU 0 instructions: 68000000 cycles: 122538450 heartbeat IPC: 0.521338 cumulative IPC: 0.494724 (Simulation time: 0 hr 41 min 44 sec) 
Heartbeat CPU 0 instructions: 69000000 cycles: 124456427 heartbeat IPC: 0.521383 cumulative IPC: 0.495153 (Simulation time: 0 hr 42 min 23 sec) 
Heartbeat CPU 0 instructions: 70000003 cycles: 126391950 heartbeat IPC: 0.516658 cumulative IPC: 0.495497 (Simulation time: 0 hr 42 min 58 sec) 
Heartbeat CPU 0 instructions: 71000001 cycles: 128336176 heartbeat IPC: 0.514342 cumulative IPC: 0.495794 (Simulation time: 0 hr 43 min 33 sec) 
Heartbeat CPU 0 instructions: 72000000 cycles: 130279775 heartbeat IPC: 0.514509 cumulative IPC: 0.496085 (Simulation time: 0 hr 44 min 8 sec) 
Heartbeat CPU 0 instructions: 73000000 cycles: 132220993 heartbeat IPC: 0.51514 cumulative IPC: 0.496377 (Simulation time: 0 hr 44 min 45 sec) 
Heartbeat CPU 0 instructions: 74000000 cycles: 134152296 heartbeat IPC: 0.517785 cumulative IPC: 0.496698 (Simulation time: 0 hr 45 min 22 sec) 
Heartbeat CPU 0 instructions: 75000001 cycles: 136056818 heartbeat IPC: 0.525067 cumulative IPC: 0.497111 (Simulation time: 0 hr 46 min 0 sec) 
Heartbeat CPU 0 instructions: 76000000 cycles: 137982454 heartbeat IPC: 0.519308 cumulative IPC: 0.497433 (Simulation time: 0 hr 46 min 37 sec) 
Heartbeat CPU 0 instructions: 77000001 cycles: 140009952 heartbeat IPC: 0.493219 cumulative IPC: 0.49737 (Simulation time: 0 hr 47 min 13 sec) 
Heartbeat CPU 0 instructions: 78000000 cycles: 141972377 heartbeat IPC: 0.509573 cumulative IPC: 0.497545 (Simulation time: 0 hr 47 min 49 sec) 
Heartbeat CPU 0 instructions: 79000003 cycles: 143996953 heartbeat IPC: 0.493932 cumulative IPC: 0.497492 (Simulation time: 0 hr 48 min 26 sec) 
Heartbeat CPU 0 instructions: 80000000 cycles: 146095307 heartbeat IPC: 0.476563 cumulative IPC: 0.49718 (Simulation time: 0 hr 48 min 58 sec) 
Heartbeat CPU 0 instructions: 81000003 cycles: 148194695 heartbeat IPC: 0.476331 cumulative IPC: 0.496874 (Simulation time: 0 hr 49 min 29 sec) 
Heartbeat CPU 0 instructions: 82000000 cycles: 150229875 heartbeat IPC: 0.491356 cumulative IPC: 0.496796 (Simulation time: 0 hr 50 min 2 sec) 
Heartbeat CPU 0 instructions: 83000000 cycles: 152215348 heartbeat IPC: 0.503658 cumulative IPC: 0.496889 (Simulation time: 0 hr 50 min 34 sec) 
Heartbeat CPU 0 instructions: 84000000 cycles: 154193276 heartbeat IPC: 0.50558 cumulative IPC: 0.497005 (Simulation time: 0 hr 51 min 6 sec) 
Heartbeat CPU 0 instructions: 85000001 cycles: 156158792 heartbeat IPC: 0.508773 cumulative IPC: 0.497158 (Simulation time: 0 hr 51 min 37 sec) 
Heartbeat CPU 0 instructions: 86000002 cycles: 158115751 heartbeat IPC: 0.510997 cumulative IPC: 0.497335 (Simulation time: 0 hr 52 min 9 sec) 
Heartbeat CPU 0 instructions: 87000000 cycles: 160104615 heartbeat IPC: 0.502799 cumulative IPC: 0.497405 (Simulation time: 0 hr 52 min 38 sec) 
Heartbeat CPU 0 instructions: 88000000 cycles: 162148870 heartbeat IPC: 0.489176 cumulative IPC: 0.497298 (Simulation time: 0 hr 53 min 7 sec) 
Heartbeat CPU 0 instructions: 89000003 cycles: 164131574 heartbeat IPC: 0.504363 cumulative IPC: 0.497386 (Simulation time: 0 hr 53 min 36 sec) 
Heartbeat CPU 0 instructions: 90000000 cycles: 166099902 heartbeat IPC: 0.508044 cumulative IPC: 0.497517 (Simulation time: 0 hr 54 min 3 sec) 
Heartbeat CPU 0 instructions: 91000000 cycles: 168071300 heartbeat IPC: 0.507254 cumulative IPC: 0.497635 (Simulation time: 0 hr 54 min 29 sec) 
Heartbeat CPU 0 instructions: 92000000 cycles: 170052142 heartbeat IPC: 0.504836 cumulative IPC: 0.497721 (Simulation time: 0 hr 54 min 52 sec) 
Heartbeat CPU 0 instructions: 93000003 cycles: 172001221 heartbeat IPC: 0.513064 cumulative IPC: 0.497901 (Simulation time: 0 hr 55 min 18 sec) 
Heartbeat CPU 0 instructions: 94000000 cycles: 173930925 heartbeat IPC: 0.518213 cumulative IPC: 0.498133 (Simulation time: 0 hr 55 min 42 sec) 
Heartbeat CPU 0 instructions: 95000000 cycles: 175892257 heartbeat IPC: 0.509858 cumulative IPC: 0.498268 (Simulation time: 0 hr 56 min 7 sec) 
Heartbeat CPU 0 instructions: 96000000 cycles: 177883810 heartbeat IPC: 0.502121 cumulative IPC: 0.498312 (Simulation time: 0 hr 56 min 31 sec) 
Heartbeat CPU 0 instructions: 97000000 cycles: 179881738 heartbeat IPC: 0.500519 cumulative IPC: 0.498338 (Simulation time: 0 hr 56 min 53 sec) 
Heartbeat CPU 0 instructions: 98000000 cycles: 181856079 heartbeat IPC: 0.506498 cumulative IPC: 0.498429 (Simulation time: 0 hr 57 min 15 sec) 
Heartbeat CPU 0 instructions: 99000000 cycles: 183915919 heartbeat IPC: 0.485475 cumulative IPC: 0.498279 (Simulation time: 0 hr 57 min 36 sec) 
Heartbeat CPU 0 instructions: 100000000 cycles: 185905095 heartbeat IPC: 0.502721 cumulative IPC: 0.498328 (Simulation time: 0 hr 57 min 58 sec) 
Heartbeat CPU 0 instructions: 101000000 cycles: 187931525 heartbeat IPC: 0.493479 cumulative IPC: 0.498275 (Simulation time: 0 hr 58 min 20 sec) 
Heartbeat CPU 0 instructions: 102000003 cycles: 189930554 heartbeat IPC: 0.500244 cumulative IPC: 0.498296 (Simulation time: 0 hr 58 min 39 sec) 
Heartbeat CPU 0 instructions: 103000000 cycles: 191869963 heartbeat IPC: 0.515619 cumulative IPC: 0.498476 (Simulation time: 0 hr 58 min 58 sec) 
Heartbeat CPU 0 instructions: 104000000 cycles: 193806304 heartbeat IPC: 0.516438 cumulative IPC: 0.49866 (Simulation time: 0 hr 59 min 17 sec) 
Heartbeat CPU 0 instructions: 105000002 cycles: 195742916 heartbeat IPC: 0.516367 cumulative IPC: 0.498841 (Simulation time: 0 hr 59 min 37 sec) 
Heartbeat CPU 0 instructions: 106000003 cycles: 197661282 heartbeat IPC: 0.521277 cumulative IPC: 0.499064 (Simulation time: 0 hr 59 min 56 sec) 
Heartbeat CPU 0 instructions: 107000000 cycles: 199596391 heartbeat IPC: 0.516765 cumulative IPC: 0.499241 (Simulation time: 1 hr 0 min 15 sec) 
Heartbeat CPU 0 instructions: 108000000 cycles: 201637442 heartbeat IPC: 0.489944 cumulative IPC: 0.499144 (Simulation time: 1 hr 0 min 31 sec) 
Heartbeat CPU 0 instructions: 109000003 cycles: 203648450 heartbeat IPC: 0.497265 cumulative IPC: 0.499125 (Simulation time: 1 hr 0 min 49 sec) 
Heartbeat CPU 0 instructions: 110000002 cycles: 205632495 heartbeat IPC: 0.50402 cumulative IPC: 0.499173 (Simulation time: 1 hr 1 min 3 sec) 
Finished CPU 0 instructions: 100000001 cycles: 200331213 cummulative IPC: 0.499173 (Simulation time: 1 hr 1 min 3 sec) 

ChampSim completed all CPUs

Region of Interest Statistics

CPU 0 cummulative IPC: 0.499173 instructions: 100000001 cycles: 200331213
LLC TOTAL     ACCESS:     479216  HIT:     213865  MISS:     265351
LLC LOAD      ACCESS:     108310  HIT:      57752  MISS:      50558
LLC RFO       ACCESS:      72099  HIT:      11561  MISS:      60538
LLC PREFETCH  ACCESS:     138947  HIT:      56795  MISS:      82152
LLC WRITEBACK ACCESS:     159860  HIT:      87757  MISS:      72103
Insertion Distribution: 
	LOAD 19217 0 27748 17714 
	RFO 391 0 3738 60284 
	PREF 0 7410 22079 74073 
	WRITEBACK 0 0 0 73218 
Total Prefetch Downgrades: 7470
