
*** ChampSim Multicore Out-of-Order Simulator ***

Warmup Instructions: 10000000
Simulation Instructions: 100000000
Configuration: 2
Number of CPUs: 1
LLC sets: 2048
LLC ways: 16
Off-chip DRAM Channels: 1 Width: 64-bit Data Rate: 1600 MT/s

CPU 0 runs /datasets/cs240c-wi22-a00-public/data/Assignment2-gz/omnetpp_4B.trace.gz
CPU 0 L1D next line prefetcher
CPU 0 L2C IP-based stride prefetcher
Initialize SRRIP state
Heartbeat CPU 0 instructions: 1000001 cycles: 566985 heartbeat IPC: 1.76372 cumulative IPC: 1.76372 (Simulation time: 0 hr 0 min 30 sec) 
Heartbeat CPU 0 instructions: 2000001 cycles: 1135699 heartbeat IPC: 1.75835 cumulative IPC: 1.76103 (Simulation time: 0 hr 1 min 0 sec) 
Heartbeat CPU 0 instructions: 3000001 cycles: 1722930 heartbeat IPC: 1.70291 cumulative IPC: 1.74122 (Simulation time: 0 hr 1 min 27 sec) 
Heartbeat CPU 0 instructions: 4000000 cycles: 2292372 heartbeat IPC: 1.7561 cumulative IPC: 1.74492 (Simulation time: 0 hr 1 min 53 sec) 
Heartbeat CPU 0 instructions: 5000000 cycles: 2866584 heartbeat IPC: 1.74152 cumulative IPC: 1.74424 (Simulation time: 0 hr 2 min 19 sec) 
Heartbeat CPU 0 instructions: 6000000 cycles: 3442766 heartbeat IPC: 1.73556 cumulative IPC: 1.74278 (Simulation time: 0 hr 2 min 44 sec) 
Heartbeat CPU 0 instructions: 7000000 cycles: 4012052 heartbeat IPC: 1.75659 cumulative IPC: 1.74474 (Simulation time: 0 hr 3 min 10 sec) 
Heartbeat CPU 0 instructions: 8000000 cycles: 4565527 heartbeat IPC: 1.80677 cumulative IPC: 1.75226 (Simulation time: 0 hr 3 min 35 sec) 
Heartbeat CPU 0 instructions: 9000001 cycles: 5147643 heartbeat IPC: 1.71787 cumulative IPC: 1.74837 (Simulation time: 0 hr 4 min 0 sec) 
Heartbeat CPU 0 instructions: 10000000 cycles: 5701615 heartbeat IPC: 1.80514 cumulative IPC: 1.75389 (Simulation time: 0 hr 4 min 24 sec) 

Warmup complete CPU 0 instructions: 10000003 cycles: 5701616 (Simulation time: 0 hr 4 min 24 sec) 

Heartbeat CPU 0 instructions: 11000000 cycles: 8874310 heartbeat IPC: 0.315189 cumulative IPC: 0.315189 (Simulation time: 0 hr 4 min 56 sec) 
Heartbeat CPU 0 instructions: 12000000 cycles: 10029736 heartbeat IPC: 0.865482 cumulative IPC: 0.462094 (Simulation time: 0 hr 5 min 19 sec) 
Heartbeat CPU 0 instructions: 13000003 cycles: 11174685 heartbeat IPC: 0.873404 cumulative IPC: 0.548139 (Simulation time: 0 hr 5 min 42 sec) 
Heartbeat CPU 0 instructions: 14000000 cycles: 12294953 heartbeat IPC: 0.892641 cumulative IPC: 0.606673 (Simulation time: 0 hr 6 min 6 sec) 
Heartbeat CPU 0 instructions: 15000000 cycles: 13434130 heartbeat IPC: 0.877827 cumulative IPC: 0.64662 (Simulation time: 0 hr 6 min 29 sec) 
Heartbeat CPU 0 instructions: 16000000 cycles: 16279053 heartbeat IPC: 0.351503 cumulative IPC: 0.567245 (Simulation time: 0 hr 7 min 1 sec) 
Heartbeat CPU 0 instructions: 17000003 cycles: 19136284 heartbeat IPC: 0.34999 cumulative IPC: 0.52104 (Simulation time: 0 hr 7 min 33 sec) 
Heartbeat CPU 0 instructions: 18000002 cycles: 21951525 heartbeat IPC: 0.355209 cumulative IPC: 0.49231 (Simulation time: 0 hr 8 min 2 sec) 
Heartbeat CPU 0 instructions: 19000002 cycles: 24773510 heartbeat IPC: 0.35436 cumulative IPC: 0.471899 (Simulation time: 0 hr 8 min 29 sec) 
Heartbeat CPU 0 instructions: 20000000 cycles: 28100150 heartbeat IPC: 0.300603 cumulative IPC: 0.446458 (Simulation time: 0 hr 8 min 58 sec) 
Heartbeat CPU 0 instructions: 21000000 cycles: 31421607 heartbeat IPC: 0.301073 cumulative IPC: 0.427683 (Simulation time: 0 hr 9 min 27 sec) 
Heartbeat CPU 0 instructions: 22000001 cycles: 34613348 heartbeat IPC: 0.313309 cumulative IPC: 0.415056 (Simulation time: 0 hr 9 min 57 sec) 
Heartbeat CPU 0 instructions: 23000000 cycles: 37448600 heartbeat IPC: 0.352702 cumulative IPC: 0.409488 (Simulation time: 0 hr 10 min 27 sec) 
Heartbeat CPU 0 instructions: 24000000 cycles: 40241808 heartbeat IPC: 0.358011 cumulative IPC: 0.405325 (Simulation time: 0 hr 10 min 58 sec) 
Heartbeat CPU 0 instructions: 25000000 cycles: 43034476 heartbeat IPC: 0.358081 cumulative IPC: 0.401791 (Simulation time: 0 hr 11 min 28 sec) 
Heartbeat CPU 0 instructions: 26000002 cycles: 45799540 heartbeat IPC: 0.361656 cumulative IPC: 0.399023 (Simulation time: 0 hr 11 min 59 sec) 
Heartbeat CPU 0 instructions: 27000001 cycles: 48626749 heartbeat IPC: 0.353705 cumulative IPC: 0.396038 (Simulation time: 0 hr 12 min 28 sec) 
Heartbeat CPU 0 instructions: 28000000 cycles: 51388935 heartbeat IPC: 0.362032 cumulative IPC: 0.393982 (Simulation time: 0 hr 12 min 56 sec) 
Heartbeat CPU 0 instructions: 29000001 cycles: 54244924 heartbeat IPC: 0.350142 cumulative IPC: 0.391403 (Simulation time: 0 hr 13 min 28 sec) 
Heartbeat CPU 0 instructions: 30000000 cycles: 57053693 heartbeat IPC: 0.356027 cumulative IPC: 0.389468 (Simulation time: 0 hr 13 min 58 sec) 
Heartbeat CPU 0 instructions: 31000002 cycles: 59823991 heartbeat IPC: 0.360973 cumulative IPC: 0.38801 (Simulation time: 0 hr 14 min 29 sec) 
Heartbeat CPU 0 instructions: 32000000 cycles: 62632037 heartbeat IPC: 0.356119 cumulative IPC: 0.386437 (Simulation time: 0 hr 15 min 3 sec) 
Heartbeat CPU 0 instructions: 33000000 cycles: 65789075 heartbeat IPC: 0.316753 cumulative IPC: 0.382775 (Simulation time: 0 hr 15 min 40 sec) 
Heartbeat CPU 0 instructions: 34000001 cycles: 69102090 heartbeat IPC: 0.30184 cumulative IPC: 0.378546 (Simulation time: 0 hr 16 min 11 sec) 
Heartbeat CPU 0 instructions: 35000001 cycles: 72141162 heartbeat IPC: 0.329048 cumulative IPC: 0.376282 (Simulation time: 0 hr 16 min 46 sec) 
Heartbeat CPU 0 instructions: 36000000 cycles: 75436251 heartbeat IPC: 0.303482 cumulative IPC: 0.372842 (Simulation time: 0 hr 17 min 17 sec) 
Heartbeat CPU 0 instructions: 37000001 cycles: 78232343 heartbeat IPC: 0.357642 cumulative IPC: 0.372256 (Simulation time: 0 hr 17 min 47 sec) 
Heartbeat CPU 0 instructions: 38000001 cycles: 81419316 heartbeat IPC: 0.313777 cumulative IPC: 0.369795 (Simulation time: 0 hr 18 min 19 sec) 
Heartbeat CPU 0 instructions: 39000001 cycles: 83933657 heartbeat IPC: 0.397719 cumulative IPC: 0.370692 (Simulation time: 0 hr 18 min 50 sec) 
Heartbeat CPU 0 instructions: 40000000 cycles: 85055884 heartbeat IPC: 0.891084 cumulative IPC: 0.378051 (Simulation time: 0 hr 19 min 15 sec) 
Heartbeat CPU 0 instructions: 41000001 cycles: 86182157 heartbeat IPC: 0.887885 cumulative IPC: 0.385186 (Simulation time: 0 hr 19 min 39 sec) 
Heartbeat CPU 0 instructions: 42000001 cycles: 87316476 heartbeat IPC: 0.881586 cumulative IPC: 0.392085 (Simulation time: 0 hr 20 min 3 sec) 
Heartbeat CPU 0 instructions: 43000002 cycles: 88529933 heartbeat IPC: 0.824093 cumulative IPC: 0.398414 (Simulation time: 0 hr 20 min 28 sec) 
Heartbeat CPU 0 instructions: 44000000 cycles: 91451911 heartbeat IPC: 0.342233 cumulative IPC: 0.3965 (Simulation time: 0 hr 20 min 58 sec) 
Heartbeat CPU 0 instructions: 45000000 cycles: 94336995 heartbeat IPC: 0.34661 cumulative IPC: 0.394876 (Simulation time: 0 hr 21 min 27 sec) 
Heartbeat CPU 0 instructions: 46000000 cycles: 97680324 heartbeat IPC: 0.299103 cumulative IPC: 0.391395 (Simulation time: 0 hr 21 min 57 sec) 
Heartbeat CPU 0 instructions: 47000000 cycles: 100999323 heartbeat IPC: 0.301296 cumulative IPC: 0.388257 (Simulation time: 0 hr 22 min 29 sec) 
Heartbeat CPU 0 instructions: 48000000 cycles: 104152030 heartbeat IPC: 0.317188 cumulative IPC: 0.385981 (Simulation time: 0 hr 23 min 1 sec) 
Heartbeat CPU 0 instructions: 49000000 cycles: 107046471 heartbeat IPC: 0.34549 cumulative IPC: 0.384825 (Simulation time: 0 hr 23 min 32 sec) 
Heartbeat CPU 0 instructions: 50000001 cycles: 109847100 heartbeat IPC: 0.357063 cumulative IPC: 0.384078 (Simulation time: 0 hr 24 min 2 sec) 
Heartbeat CPU 0 instructions: 51000003 cycles: 112647273 heartbeat IPC: 0.357121 cumulative IPC: 0.383372 (Simulation time: 0 hr 24 min 33 sec) 
Heartbeat CPU 0 instructions: 52000000 cycles: 115425327 heartbeat IPC: 0.359963 cumulative IPC: 0.38278 (Simulation time: 0 hr 25 min 3 sec) 
Heartbeat CPU 0 instructions: 53000003 cycles: 118216988 heartbeat IPC: 0.358211 cumulative IPC: 0.38217 (Simulation time: 0 hr 25 min 36 sec) 
Heartbeat CPU 0 instructions: 54000001 cycles: 120982062 heartbeat IPC: 0.361653 cumulative IPC: 0.381678 (Simulation time: 0 hr 26 min 6 sec) 
Heartbeat CPU 0 instructions: 55000001 cycles: 123896080 heartbeat IPC: 0.343169 cumulative IPC: 0.380728 (Simulation time: 0 hr 26 min 42 sec) 
Heartbeat CPU 0 instructions: 56000000 cycles: 126707927 heartbeat IPC: 0.355638 cumulative IPC: 0.380145 (Simulation time: 0 hr 27 min 13 sec) 
Heartbeat CPU 0 instructions: 57000003 cycles: 129482627 heartbeat IPC: 0.3604 cumulative IPC: 0.379703 (Simulation time: 0 hr 27 min 42 sec) 
Heartbeat CPU 0 instructions: 58000001 cycles: 132466678 heartbeat IPC: 0.335114 cumulative IPC: 0.378653 (Simulation time: 0 hr 28 min 13 sec) 
Heartbeat CPU 0 instructions: 59000001 cycles: 135753919 heartbeat IPC: 0.304206 cumulative IPC: 0.376771 (Simulation time: 0 hr 28 min 46 sec) 
Heartbeat CPU 0 instructions: 60000000 cycles: 138737234 heartbeat IPC: 0.335197 cumulative IPC: 0.375839 (Simulation time: 0 hr 29 min 18 sec) 
Heartbeat CPU 0 instructions: 61000001 cycles: 141788485 heartbeat IPC: 0.327735 cumulative IPC: 0.374761 (Simulation time: 0 hr 29 min 49 sec) 
Heartbeat CPU 0 instructions: 62000000 cycles: 145137865 heartbeat IPC: 0.298562 cumulative IPC: 0.37293 (Simulation time: 0 hr 30 min 21 sec) 
Heartbeat CPU 0 instructions: 63000001 cycles: 147971567 heartbeat IPC: 0.352896 cumulative IPC: 0.372531 (Simulation time: 0 hr 30 min 52 sec) 
Heartbeat CPU 0 instructions: 64000000 cycles: 150771520 heartbeat IPC: 0.357148 cumulative IPC: 0.372234 (Simulation time: 0 hr 31 min 21 sec) 
Heartbeat CPU 0 instructions: 65000001 cycles: 153566976 heartbeat IPC: 0.357724 cumulative IPC: 0.37196 (Simulation time: 0 hr 31 min 57 sec) 
Heartbeat CPU 0 instructions: 66000002 cycles: 157699585 heartbeat IPC: 0.241978 cumulative IPC: 0.368426 (Simulation time: 0 hr 32 min 33 sec) 
Heartbeat CPU 0 instructions: 67000001 cycles: 159363135 heartbeat IPC: 0.601124 cumulative IPC: 0.370945 (Simulation time: 0 hr 33 min 1 sec) 
Heartbeat CPU 0 instructions: 68000000 cycles: 160486976 heartbeat IPC: 0.889805 cumulative IPC: 0.374712 (Simulation time: 0 hr 33 min 25 sec) 
Heartbeat CPU 0 instructions: 69000003 cycles: 161628977 heartbeat IPC: 0.875659 cumulative IPC: 0.378381 (Simulation time: 0 hr 33 min 51 sec) 
Heartbeat CPU 0 instructions: 70000000 cycles: 162749225 heartbeat IPC: 0.892657 cumulative IPC: 0.38205 (Simulation time: 0 hr 34 min 16 sec) 
Heartbeat CPU 0 instructions: 71000001 cycles: 163924555 heartbeat IPC: 0.850826 cumulative IPC: 0.385532 (Simulation time: 0 hr 34 min 43 sec) 
Heartbeat CPU 0 instructions: 72000000 cycles: 167274094 heartbeat IPC: 0.298548 cumulative IPC: 0.383729 (Simulation time: 0 hr 35 min 17 sec) 
Heartbeat CPU 0 instructions: 73000000 cycles: 170683336 heartbeat IPC: 0.29332 cumulative IPC: 0.38186 (Simulation time: 0 hr 35 min 49 sec) 
Heartbeat CPU 0 instructions: 74000001 cycles: 174038416 heartbeat IPC: 0.298056 cumulative IPC: 0.38019 (Simulation time: 0 hr 36 min 20 sec) 
Heartbeat CPU 0 instructions: 75000001 cycles: 176953284 heartbeat IPC: 0.343069 cumulative IPC: 0.379558 (Simulation time: 0 hr 36 min 51 sec) 
Heartbeat CPU 0 instructions: 76000000 cycles: 179737194 heartbeat IPC: 0.359207 cumulative IPC: 0.379233 (Simulation time: 0 hr 37 min 22 sec) 
Heartbeat CPU 0 instructions: 77000000 cycles: 182541517 heartbeat IPC: 0.356592 cumulative IPC: 0.378874 (Simulation time: 0 hr 37 min 53 sec) 
Heartbeat CPU 0 instructions: 78000001 cycles: 185347676 heartbeat IPC: 0.356359 cumulative IPC: 0.378522 (Simulation time: 0 hr 38 min 23 sec) 
Heartbeat CPU 0 instructions: 79000001 cycles: 188141986 heartbeat IPC: 0.35787 cumulative IPC: 0.378206 (Simulation time: 0 hr 38 min 55 sec) 
Heartbeat CPU 0 instructions: 80000000 cycles: 190914205 heartbeat IPC: 0.360721 cumulative IPC: 0.377944 (Simulation time: 0 hr 39 min 25 sec) 
Heartbeat CPU 0 instructions: 81000002 cycles: 193765877 heartbeat IPC: 0.350672 cumulative IPC: 0.377531 (Simulation time: 0 hr 39 min 58 sec) 
Heartbeat CPU 0 instructions: 82000001 cycles: 196587869 heartbeat IPC: 0.354359 cumulative IPC: 0.377188 (Simulation time: 0 hr 40 min 28 sec) 
Heartbeat CPU 0 instructions: 83000002 cycles: 199445567 heartbeat IPC: 0.349932 cumulative IPC: 0.376786 (Simulation time: 0 hr 40 min 58 sec) 
Heartbeat CPU 0 instructions: 84000000 cycles: 202303267 heartbeat IPC: 0.349931 cumulative IPC: 0.376396 (Simulation time: 0 hr 41 min 28 sec) 
Heartbeat CPU 0 instructions: 85000002 cycles: 205611751 heartbeat IPC: 0.302254 cumulative IPC: 0.375169 (Simulation time: 0 hr 42 min 1 sec) 
Heartbeat CPU 0 instructions: 86000002 cycles: 208912349 heartbeat IPC: 0.302975 cumulative IPC: 0.373996 (Simulation time: 0 hr 42 min 33 sec) 
Heartbeat CPU 0 instructions: 87000000 cycles: 211934800 heartbeat IPC: 0.330857 cumulative IPC: 0.373364 (Simulation time: 0 hr 43 min 7 sec) 
Heartbeat CPU 0 instructions: 88000000 cycles: 214960402 heartbeat IPC: 0.330513 cumulative IPC: 0.372744 (Simulation time: 0 hr 43 min 39 sec) 
Heartbeat CPU 0 instructions: 89000002 cycles: 218037021 heartbeat IPC: 0.325033 cumulative IPC: 0.372053 (Simulation time: 0 hr 44 min 12 sec) 
Heartbeat CPU 0 instructions: 90000001 cycles: 220821456 heartbeat IPC: 0.359139 cumulative IPC: 0.371886 (Simulation time: 0 hr 44 min 41 sec) 
Heartbeat CPU 0 instructions: 91000001 cycles: 223633498 heartbeat IPC: 0.355613 cumulative IPC: 0.371676 (Simulation time: 0 hr 45 min 11 sec) 
Heartbeat CPU 0 instructions: 92000000 cycles: 226532449 heartbeat IPC: 0.344952 cumulative IPC: 0.371325 (Simulation time: 0 hr 45 min 44 sec) 
Heartbeat CPU 0 instructions: 93000000 cycles: 229380137 heartbeat IPC: 0.351162 cumulative IPC: 0.371068 (Simulation time: 0 hr 46 min 13 sec) 
Heartbeat CPU 0 instructions: 94000000 cycles: 233923671 heartbeat IPC: 0.220093 cumulative IPC: 0.368063 (Simulation time: 0 hr 46 min 52 sec) 
Heartbeat CPU 0 instructions: 95000000 cycles: 235109554 heartbeat IPC: 0.843253 cumulative IPC: 0.370519 (Simulation time: 0 hr 47 min 17 sec) 
Heartbeat CPU 0 instructions: 96000000 cycles: 236252535 heartbeat IPC: 0.874905 cumulative IPC: 0.37302 (Simulation time: 0 hr 47 min 42 sec) 
Heartbeat CPU 0 instructions: 97000002 cycles: 237371218 heartbeat IPC: 0.89391 cumulative IPC: 0.375535 (Simulation time: 0 hr 48 min 5 sec) 
Heartbeat CPU 0 instructions: 98000001 cycles: 238513159 heartbeat IPC: 0.875701 cumulative IPC: 0.377988 (Simulation time: 0 hr 48 min 28 sec) 
Heartbeat CPU 0 instructions: 99000002 cycles: 240383429 heartbeat IPC: 0.534683 cumulative IPC: 0.379237 (Simulation time: 0 hr 48 min 51 sec) 
Heartbeat CPU 0 instructions: 100000000 cycles: 243790468 heartbeat IPC: 0.293509 cumulative IPC: 0.37801 (Simulation time: 0 hr 49 min 19 sec) 
Heartbeat CPU 0 instructions: 101000002 cycles: 246901723 heartbeat IPC: 0.321414 cumulative IPC: 0.37728 (Simulation time: 0 hr 49 min 48 sec) 
Heartbeat CPU 0 instructions: 102000001 cycles: 249905276 heartbeat IPC: 0.332939 cumulative IPC: 0.376735 (Simulation time: 0 hr 50 min 15 sec) 
Heartbeat CPU 0 instructions: 103000000 cycles: 252704997 heartbeat IPC: 0.357178 cumulative IPC: 0.376513 (Simulation time: 0 hr 50 min 43 sec) 
Heartbeat CPU 0 instructions: 104000000 cycles: 255518065 heartbeat IPC: 0.355484 cumulative IPC: 0.376276 (Simulation time: 0 hr 51 min 9 sec) 
Heartbeat CPU 0 instructions: 105000001 cycles: 258310961 heartbeat IPC: 0.358052 cumulative IPC: 0.376075 (Simulation time: 0 hr 51 min 36 sec) 
Heartbeat CPU 0 instructions: 106000000 cycles: 261211945 heartbeat IPC: 0.34471 cumulative IPC: 0.375719 (Simulation time: 0 hr 52 min 2 sec) 
Heartbeat CPU 0 instructions: 107000002 cycles: 264065515 heartbeat IPC: 0.350439 cumulative IPC: 0.375439 (Simulation time: 0 hr 52 min 27 sec) 
Heartbeat CPU 0 instructions: 108000000 cycles: 266877788 heartbeat IPC: 0.355584 cumulative IPC: 0.375226 (Simulation time: 0 hr 52 min 52 sec) 
Heartbeat CPU 0 instructions: 109000002 cycles: 269669769 heartbeat IPC: 0.358169 cumulative IPC: 0.375045 (Simulation time: 0 hr 53 min 17 sec) 
Heartbeat CPU 0 instructions: 110000001 cycles: 272505074 heartbeat IPC: 0.352695 cumulative IPC: 0.374808 (Simulation time: 0 hr 53 min 42 sec) 
Finished CPU 0 instructions: 100000001 cycles: 266803460 cummulative IPC: 0.374808 (Simulation time: 0 hr 53 min 42 sec) 

ChampSim completed all CPUs

Region of Interest Statistics

CPU 0 cummulative IPC: 0.374808 instructions: 100000001 cycles: 266803460
LLC TOTAL     ACCESS:    4665584  HIT:    2403047  MISS:    2262537
LLC LOAD      ACCESS:    2183514  HIT:    2040366  MISS:     143148
LLC RFO       ACCESS:      24960  HIT:      12258  MISS:      12702
LLC PREFETCH  ACCESS:    2376741  HIT:     292496  MISS:    2084245
LLC WRITEBACK ACCESS:      80369  HIT:      57927  MISS:      22442
Insertion Distribution: 
	LOAD 45508 0 78536 96683 
	RFO 3441 0 4708 6158 
	PREF 0 10405 57175 2227085 
	WRITEBACK 0 0 0 23675 
Total Prefetch Downgrades: 11743
