
*** ChampSim Multicore Out-of-Order Simulator ***

Warmup Instructions: 10000000
Simulation Instructions: 100000000
Configuration: 2
Number of CPUs: 1
LLC sets: 2048
LLC ways: 16
Off-chip DRAM Channels: 1 Width: 64-bit Data Rate: 1600 MT/s

CPU 0 runs /datasets/cs240c-wi22-a00-public/data/Assignment2-gz/perlbench_135B.trace.gz
CPU 0 L1D next line prefetcher
CPU 0 L2C IP-based stride prefetcher
Initialize SRRIP state
Heartbeat CPU 0 instructions: 1000000 cycles: 600033 heartbeat IPC: 1.66657 cumulative IPC: 1.66657 (Simulation time: 0 hr 0 min 38 sec) 
Heartbeat CPU 0 instructions: 2000000 cycles: 1209304 heartbeat IPC: 1.64131 cumulative IPC: 1.65384 (Simulation time: 0 hr 1 min 14 sec) 
Heartbeat CPU 0 instructions: 3000000 cycles: 1832837 heartbeat IPC: 1.60376 cumulative IPC: 1.63681 (Simulation time: 0 hr 1 min 49 sec) 
Heartbeat CPU 0 instructions: 4000000 cycles: 2492645 heartbeat IPC: 1.51559 cumulative IPC: 1.60472 (Simulation time: 0 hr 2 min 23 sec) 
Heartbeat CPU 0 instructions: 5000001 cycles: 3079308 heartbeat IPC: 1.70456 cumulative IPC: 1.62374 (Simulation time: 0 hr 2 min 55 sec) 
Heartbeat CPU 0 instructions: 6000002 cycles: 3681733 heartbeat IPC: 1.65996 cumulative IPC: 1.62967 (Simulation time: 0 hr 3 min 31 sec) 
Heartbeat CPU 0 instructions: 7000001 cycles: 4282494 heartbeat IPC: 1.66455 cumulative IPC: 1.63456 (Simulation time: 0 hr 4 min 16 sec) 
Heartbeat CPU 0 instructions: 8000000 cycles: 4892986 heartbeat IPC: 1.63802 cumulative IPC: 1.63499 (Simulation time: 0 hr 4 min 52 sec) 
Heartbeat CPU 0 instructions: 9000001 cycles: 5534101 heartbeat IPC: 1.55978 cumulative IPC: 1.62628 (Simulation time: 0 hr 5 min 28 sec) 
Heartbeat CPU 0 instructions: 10000000 cycles: 6192790 heartbeat IPC: 1.51817 cumulative IPC: 1.61478 (Simulation time: 0 hr 6 min 2 sec) 

Warmup complete CPU 0 instructions: 10000004 cycles: 6192791 (Simulation time: 0 hr 6 min 2 sec) 

Heartbeat CPU 0 instructions: 11000003 cycles: 8935360 heartbeat IPC: 0.364623 cumulative IPC: 0.364621 (Simulation time: 0 hr 6 min 50 sec) 
Heartbeat CPU 0 instructions: 12000000 cycles: 11272654 heartbeat IPC: 0.427844 cumulative IPC: 0.393711 (Simulation time: 0 hr 7 min 36 sec) 
Heartbeat CPU 0 instructions: 13000000 cycles: 13823677 heartbeat IPC: 0.392 cumulative IPC: 0.393139 (Simulation time: 0 hr 8 min 21 sec) 
Heartbeat CPU 0 instructions: 14000000 cycles: 16832366 heartbeat IPC: 0.332371 cumulative IPC: 0.375954 (Simulation time: 0 hr 9 min 1 sec) 
Heartbeat CPU 0 instructions: 15000003 cycles: 19512556 heartbeat IPC: 0.373109 cumulative IPC: 0.375382 (Simulation time: 0 hr 9 min 40 sec) 
Heartbeat CPU 0 instructions: 16000000 cycles: 22146158 heartbeat IPC: 0.379707 cumulative IPC: 0.376096 (Simulation time: 0 hr 10 min 22 sec) 
Heartbeat CPU 0 instructions: 17000000 cycles: 24847698 heartbeat IPC: 0.370159 cumulative IPC: 0.375236 (Simulation time: 0 hr 11 min 3 sec) 
Heartbeat CPU 0 instructions: 18000000 cycles: 27529833 heartbeat IPC: 0.372837 cumulative IPC: 0.374935 (Simulation time: 0 hr 11 min 44 sec) 
Heartbeat CPU 0 instructions: 19000003 cycles: 30160371 heartbeat IPC: 0.380152 cumulative IPC: 0.375507 (Simulation time: 0 hr 12 min 27 sec) 
Heartbeat CPU 0 instructions: 20000000 cycles: 32797388 heartbeat IPC: 0.379215 cumulative IPC: 0.375875 (Simulation time: 0 hr 13 min 11 sec) 
Heartbeat CPU 0 instructions: 21000000 cycles: 35421603 heartbeat IPC: 0.381066 cumulative IPC: 0.376341 (Simulation time: 0 hr 13 min 52 sec) 
Heartbeat CPU 0 instructions: 22000002 cycles: 38047228 heartbeat IPC: 0.380862 cumulative IPC: 0.376714 (Simulation time: 0 hr 14 min 35 sec) 
Heartbeat CPU 0 instructions: 23000003 cycles: 40705596 heartbeat IPC: 0.376171 cumulative IPC: 0.376672 (Simulation time: 0 hr 15 min 24 sec) 
Heartbeat CPU 0 instructions: 24000000 cycles: 42802885 heartbeat IPC: 0.476805 cumulative IPC: 0.382408 (Simulation time: 0 hr 16 min 4 sec) 
Heartbeat CPU 0 instructions: 25000000 cycles: 45409557 heartbeat IPC: 0.383631 cumulative IPC: 0.382489 (Simulation time: 0 hr 16 min 57 sec) 
Heartbeat CPU 0 instructions: 26000001 cycles: 47969614 heartbeat IPC: 0.390617 cumulative IPC: 0.382987 (Simulation time: 0 hr 17 min 38 sec) 
Heartbeat CPU 0 instructions: 27000000 cycles: 50633628 heartbeat IPC: 0.375373 cumulative IPC: 0.382531 (Simulation time: 0 hr 18 min 18 sec) 
Heartbeat CPU 0 instructions: 28000000 cycles: 53273610 heartbeat IPC: 0.37879 cumulative IPC: 0.382321 (Simulation time: 0 hr 18 min 57 sec) 
Heartbeat CPU 0 instructions: 29000000 cycles: 55900330 heartbeat IPC: 0.380703 cumulative IPC: 0.382236 (Simulation time: 0 hr 19 min 37 sec) 
Heartbeat CPU 0 instructions: 30000000 cycles: 58613824 heartbeat IPC: 0.368529 cumulative IPC: 0.381526 (Simulation time: 0 hr 20 min 17 sec) 
Heartbeat CPU 0 instructions: 31000001 cycles: 61250742 heartbeat IPC: 0.379231 cumulative IPC: 0.381416 (Simulation time: 0 hr 20 min 59 sec) 
Heartbeat CPU 0 instructions: 32000000 cycles: 63901961 heartbeat IPC: 0.377185 cumulative IPC: 0.381222 (Simulation time: 0 hr 21 min 37 sec) 
Heartbeat CPU 0 instructions: 33000000 cycles: 66529320 heartbeat IPC: 0.38061 cumulative IPC: 0.381195 (Simulation time: 0 hr 22 min 16 sec) 
Heartbeat CPU 0 instructions: 34000001 cycles: 69138911 heartbeat IPC: 0.383202 cumulative IPC: 0.381278 (Simulation time: 0 hr 22 min 55 sec) 
Heartbeat CPU 0 instructions: 35000003 cycles: 71789218 heartbeat IPC: 0.377316 cumulative IPC: 0.381118 (Simulation time: 0 hr 23 min 36 sec) 
Heartbeat CPU 0 instructions: 36000000 cycles: 74091362 heartbeat IPC: 0.434376 cumulative IPC: 0.382924 (Simulation time: 0 hr 24 min 18 sec) 
Heartbeat CPU 0 instructions: 37000000 cycles: 76379763 heartbeat IPC: 0.436986 cumulative IPC: 0.384687 (Simulation time: 0 hr 25 min 3 sec) 
Heartbeat CPU 0 instructions: 38000000 cycles: 78467457 heartbeat IPC: 0.478997 cumulative IPC: 0.387411 (Simulation time: 0 hr 25 min 43 sec) 
Heartbeat CPU 0 instructions: 39000000 cycles: 80762428 heartbeat IPC: 0.435735 cumulative IPC: 0.388898 (Simulation time: 0 hr 26 min 29 sec) 
Heartbeat CPU 0 instructions: 40000000 cycles: 82715811 heartbeat IPC: 0.511932 cumulative IPC: 0.392039 (Simulation time: 0 hr 27 min 9 sec) 
Heartbeat CPU 0 instructions: 41000001 cycles: 84796517 heartbeat IPC: 0.480607 cumulative IPC: 0.394383 (Simulation time: 0 hr 27 min 48 sec) 
Heartbeat CPU 0 instructions: 42000003 cycles: 87415966 heartbeat IPC: 0.38176 cumulative IPC: 0.393976 (Simulation time: 0 hr 28 min 31 sec) 
Heartbeat CPU 0 instructions: 43000001 cycles: 89978556 heartbeat IPC: 0.390229 cumulative IPC: 0.393862 (Simulation time: 0 hr 29 min 16 sec) 
Heartbeat CPU 0 instructions: 44000000 cycles: 92272910 heartbeat IPC: 0.435852 cumulative IPC: 0.394981 (Simulation time: 0 hr 30 min 2 sec) 
Heartbeat CPU 0 instructions: 45000003 cycles: 94908420 heartbeat IPC: 0.379434 cumulative IPC: 0.394519 (Simulation time: 0 hr 30 min 45 sec) 
Heartbeat CPU 0 instructions: 46000003 cycles: 97579768 heartbeat IPC: 0.374343 cumulative IPC: 0.393929 (Simulation time: 0 hr 31 min 26 sec) 
Heartbeat CPU 0 instructions: 47000000 cycles: 100207342 heartbeat IPC: 0.380578 cumulative IPC: 0.393556 (Simulation time: 0 hr 32 min 4 sec) 
Heartbeat CPU 0 instructions: 48000000 cycles: 102820460 heartbeat IPC: 0.382685 cumulative IPC: 0.393262 (Simulation time: 0 hr 32 min 44 sec) 
Heartbeat CPU 0 instructions: 49000000 cycles: 105487344 heartbeat IPC: 0.374969 cumulative IPC: 0.392771 (Simulation time: 0 hr 33 min 24 sec) 
Heartbeat CPU 0 instructions: 50000001 cycles: 108112641 heartbeat IPC: 0.38091 cumulative IPC: 0.392465 (Simulation time: 0 hr 34 min 5 sec) 
Heartbeat CPU 0 instructions: 51000000 cycles: 110731207 heartbeat IPC: 0.381888 cumulative IPC: 0.3922 (Simulation time: 0 hr 34 min 44 sec) 
Heartbeat CPU 0 instructions: 52000000 cycles: 113342011 heartbeat IPC: 0.383024 cumulative IPC: 0.391977 (Simulation time: 0 hr 35 min 24 sec) 
Heartbeat CPU 0 instructions: 53000000 cycles: 115926186 heartbeat IPC: 0.386971 cumulative IPC: 0.391859 (Simulation time: 0 hr 36 min 2 sec) 
Heartbeat CPU 0 instructions: 54000001 cycles: 118565168 heartbeat IPC: 0.378934 cumulative IPC: 0.391555 (Simulation time: 0 hr 36 min 42 sec) 
Heartbeat CPU 0 instructions: 55000001 cycles: 121011248 heartbeat IPC: 0.408817 cumulative IPC: 0.391923 (Simulation time: 0 hr 37 min 26 sec) 
Heartbeat CPU 0 instructions: 56000000 cycles: 123134592 heartbeat IPC: 0.470955 cumulative IPC: 0.393358 (Simulation time: 0 hr 38 min 7 sec) 
Heartbeat CPU 0 instructions: 57000000 cycles: 125335957 heartbeat IPC: 0.454264 cumulative IPC: 0.394483 (Simulation time: 0 hr 38 min 49 sec) 
Heartbeat CPU 0 instructions: 58000002 cycles: 127283746 heartbeat IPC: 0.513404 cumulative IPC: 0.396396 (Simulation time: 0 hr 39 min 34 sec) 
Heartbeat CPU 0 instructions: 59000003 cycles: 129402291 heartbeat IPC: 0.472023 cumulative IPC: 0.397697 (Simulation time: 0 hr 40 min 13 sec) 
Heartbeat CPU 0 instructions: 60000000 cycles: 132355678 heartbeat IPC: 0.338593 cumulative IPC: 0.396313 (Simulation time: 0 hr 40 min 51 sec) 
Heartbeat CPU 0 instructions: 61000000 cycles: 134768371 heartbeat IPC: 0.414475 cumulative IPC: 0.396654 (Simulation time: 0 hr 41 min 36 sec) 
Heartbeat CPU 0 instructions: 62000001 cycles: 137552281 heartbeat IPC: 0.359207 cumulative IPC: 0.39586 (Simulation time: 0 hr 42 min 22 sec) 
Heartbeat CPU 0 instructions: 63000000 cycles: 140489178 heartbeat IPC: 0.340495 cumulative IPC: 0.394649 (Simulation time: 0 hr 43 min 1 sec) 
Heartbeat CPU 0 instructions: 64000000 cycles: 143396151 heartbeat IPC: 0.344 cumulative IPC: 0.393576 (Simulation time: 0 hr 43 min 36 sec) 
Heartbeat CPU 0 instructions: 65000001 cycles: 146280883 heartbeat IPC: 0.346653 cumulative IPC: 0.39261 (Simulation time: 0 hr 44 min 16 sec) 
Heartbeat CPU 0 instructions: 66000001 cycles: 149137516 heartbeat IPC: 0.350062 cumulative IPC: 0.39176 (Simulation time: 0 hr 44 min 54 sec) 
Heartbeat CPU 0 instructions: 67000001 cycles: 151859848 heartbeat IPC: 0.367332 cumulative IPC: 0.391303 (Simulation time: 0 hr 45 min 31 sec) 
Heartbeat CPU 0 instructions: 68000000 cycles: 154590403 heartbeat IPC: 0.366226 cumulative IPC: 0.390842 (Simulation time: 0 hr 46 min 13 sec) 
Heartbeat CPU 0 instructions: 69000002 cycles: 157534838 heartbeat IPC: 0.339624 cumulative IPC: 0.389845 (Simulation time: 0 hr 46 min 59 sec) 
Heartbeat CPU 0 instructions: 70000003 cycles: 159338345 heartbeat IPC: 0.554476 cumulative IPC: 0.391784 (Simulation time: 0 hr 47 min 33 sec) 
Heartbeat CPU 0 instructions: 71000000 cycles: 161258090 heartbeat IPC: 0.520901 cumulative IPC: 0.393383 (Simulation time: 0 hr 48 min 8 sec) 
Heartbeat CPU 0 instructions: 72000000 cycles: 163245069 heartbeat IPC: 0.503277 cumulative IPC: 0.394773 (Simulation time: 0 hr 48 min 40 sec) 
Heartbeat CPU 0 instructions: 73000000 cycles: 165514401 heartbeat IPC: 0.440658 cumulative IPC: 0.395427 (Simulation time: 0 hr 49 min 15 sec) 
Heartbeat CPU 0 instructions: 74000000 cycles: 167432947 heartbeat IPC: 0.521228 cumulative IPC: 0.396923 (Simulation time: 0 hr 49 min 46 sec) 
Heartbeat CPU 0 instructions: 75000003 cycles: 169666502 heartbeat IPC: 0.447718 cumulative IPC: 0.397617 (Simulation time: 0 hr 50 min 20 sec) 
Heartbeat CPU 0 instructions: 76000000 cycles: 172404007 heartbeat IPC: 0.365295 cumulative IPC: 0.397085 (Simulation time: 0 hr 50 min 54 sec) 
Heartbeat CPU 0 instructions: 77000000 cycles: 175095948 heartbeat IPC: 0.371479 cumulative IPC: 0.396677 (Simulation time: 0 hr 51 min 30 sec) 
Heartbeat CPU 0 instructions: 78000000 cycles: 178039736 heartbeat IPC: 0.339698 cumulative IPC: 0.395701 (Simulation time: 0 hr 52 min 6 sec) 
Heartbeat CPU 0 instructions: 79000000 cycles: 179895577 heartbeat IPC: 0.538839 cumulative IPC: 0.39723 (Simulation time: 0 hr 52 min 38 sec) 
Heartbeat CPU 0 instructions: 80000000 cycles: 181679300 heartbeat IPC: 0.560625 cumulative IPC: 0.398891 (Simulation time: 0 hr 53 min 7 sec) 
Heartbeat CPU 0 instructions: 81000000 cycles: 183600696 heartbeat IPC: 0.520455 cumulative IPC: 0.400208 (Simulation time: 0 hr 53 min 36 sec) 
Heartbeat CPU 0 instructions: 82000000 cycles: 185518235 heartbeat IPC: 0.521502 cumulative IPC: 0.401505 (Simulation time: 0 hr 54 min 2 sec) 
Heartbeat CPU 0 instructions: 83000000 cycles: 187844490 heartbeat IPC: 0.429875 cumulative IPC: 0.401868 (Simulation time: 0 hr 54 min 28 sec) 
Heartbeat CPU 0 instructions: 84000000 cycles: 189796252 heartbeat IPC: 0.512358 cumulative IPC: 0.403042 (Simulation time: 0 hr 54 min 53 sec) 
Heartbeat CPU 0 instructions: 85000000 cycles: 191717267 heartbeat IPC: 0.520558 cumulative IPC: 0.404259 (Simulation time: 0 hr 55 min 17 sec) 
Heartbeat CPU 0 instructions: 86000002 cycles: 193635796 heartbeat IPC: 0.521234 cumulative IPC: 0.405457 (Simulation time: 0 hr 55 min 41 sec) 
Heartbeat CPU 0 instructions: 87000003 cycles: 195801637 heartbeat IPC: 0.461715 cumulative IPC: 0.406099 (Simulation time: 0 hr 56 min 4 sec) 
Heartbeat CPU 0 instructions: 88000000 cycles: 198571713 heartbeat IPC: 0.361 cumulative IPC: 0.40545 (Simulation time: 0 hr 56 min 29 sec) 
Heartbeat CPU 0 instructions: 89000003 cycles: 201136207 heartbeat IPC: 0.389942 cumulative IPC: 0.405246 (Simulation time: 0 hr 56 min 54 sec) 
Heartbeat CPU 0 instructions: 90000001 cycles: 204008044 heartbeat IPC: 0.348208 cumulative IPC: 0.404418 (Simulation time: 0 hr 57 min 20 sec) 
Heartbeat CPU 0 instructions: 91000000 cycles: 206485964 heartbeat IPC: 0.403564 cumulative IPC: 0.404407 (Simulation time: 0 hr 57 min 43 sec) 
Heartbeat CPU 0 instructions: 92000000 cycles: 208938980 heartbeat IPC: 0.407661 cumulative IPC: 0.404447 (Simulation time: 0 hr 58 min 6 sec) 
Heartbeat CPU 0 instructions: 93000000 cycles: 211632511 heartbeat IPC: 0.37126 cumulative IPC: 0.404011 (Simulation time: 0 hr 58 min 27 sec) 
Heartbeat CPU 0 instructions: 94000001 cycles: 214293265 heartbeat IPC: 0.375834 cumulative IPC: 0.403651 (Simulation time: 0 hr 58 min 48 sec) 
Heartbeat CPU 0 instructions: 95000000 cycles: 217140265 heartbeat IPC: 0.351247 cumulative IPC: 0.402944 (Simulation time: 0 hr 59 min 9 sec) 
Heartbeat CPU 0 instructions: 96000000 cycles: 220177879 heartbeat IPC: 0.329206 cumulative IPC: 0.401897 (Simulation time: 0 hr 59 min 31 sec) 
Heartbeat CPU 0 instructions: 97000001 cycles: 223111327 heartbeat IPC: 0.340896 cumulative IPC: 0.401072 (Simulation time: 0 hr 59 min 52 sec) 
Heartbeat CPU 0 instructions: 98000000 cycles: 225766123 heartbeat IPC: 0.376676 cumulative IPC: 0.400777 (Simulation time: 1 hr 0 min 12 sec) 
Heartbeat CPU 0 instructions: 99000000 cycles: 228363596 heartbeat IPC: 0.38499 cumulative IPC: 0.400593 (Simulation time: 1 hr 0 min 31 sec) 
Heartbeat CPU 0 instructions: 100000000 cycles: 230986172 heartbeat IPC: 0.381305 cumulative IPC: 0.400368 (Simulation time: 1 hr 0 min 50 sec) 
Heartbeat CPU 0 instructions: 101000001 cycles: 233586980 heartbeat IPC: 0.384496 cumulative IPC: 0.400186 (Simulation time: 1 hr 1 min 8 sec) 
Heartbeat CPU 0 instructions: 102000000 cycles: 236215965 heartbeat IPC: 0.380375 cumulative IPC: 0.39996 (Simulation time: 1 hr 1 min 23 sec) 
Heartbeat CPU 0 instructions: 103000000 cycles: 238861856 heartbeat IPC: 0.377945 cumulative IPC: 0.399709 (Simulation time: 1 hr 1 min 38 sec) 
Heartbeat CPU 0 instructions: 104000000 cycles: 241590871 heartbeat IPC: 0.366433 cumulative IPC: 0.399324 (Simulation time: 1 hr 1 min 52 sec) 
Heartbeat CPU 0 instructions: 105000001 cycles: 244194993 heartbeat IPC: 0.384007 cumulative IPC: 0.399156 (Simulation time: 1 hr 2 min 6 sec) 
Heartbeat CPU 0 instructions: 106000001 cycles: 246813125 heartbeat IPC: 0.381952 cumulative IPC: 0.398969 (Simulation time: 1 hr 2 min 20 sec) 
Heartbeat CPU 0 instructions: 107000000 cycles: 249427787 heartbeat IPC: 0.382458 cumulative IPC: 0.398791 (Simulation time: 1 hr 2 min 33 sec) 
Heartbeat CPU 0 instructions: 108000000 cycles: 252038707 heartbeat IPC: 0.383007 cumulative IPC: 0.398624 (Simulation time: 1 hr 2 min 46 sec) 
Heartbeat CPU 0 instructions: 109000001 cycles: 254612651 heartbeat IPC: 0.388509 cumulative IPC: 0.398519 (Simulation time: 1 hr 3 min 0 sec) 
Heartbeat CPU 0 instructions: 110000003 cycles: 256767380 heartbeat IPC: 0.464096 cumulative IPC: 0.399083 (Simulation time: 1 hr 3 min 11 sec) 
Finished CPU 0 instructions: 100000003 cycles: 250574590 cummulative IPC: 0.399083 (Simulation time: 1 hr 3 min 11 sec) 

ChampSim completed all CPUs

Region of Interest Statistics

CPU 0 cummulative IPC: 0.399083 instructions: 100000003 cycles: 250574590
LLC TOTAL     ACCESS:     635536  HIT:     577580  MISS:      57956
LLC LOAD      ACCESS:     295073  HIT:     285537  MISS:       9536
LLC RFO       ACCESS:      30363  HIT:      25494  MISS:       4869
LLC PREFETCH  ACCESS:     206819  HIT:     164850  MISS:      41969
LLC WRITEBACK ACCESS:     103281  HIT:     101699  MISS:       1582
Insertion Distribution: 
	LOAD 5326 0 17884 504 
	RFO 224 0 4702 1706 
	PREF 0 1872 25160 27793 
	WRITEBACK 0 0 0 1890 
Total Prefetch Downgrades: 3430
