
*** ChampSim Multicore Out-of-Order Simulator ***

Warmup Instructions: 10000000
Simulation Instructions: 100000000
Configuration: 2
Number of CPUs: 1
LLC sets: 2048
LLC ways: 16
Off-chip DRAM Channels: 1 Width: 64-bit Data Rate: 1600 MT/s

CPU 0 runs /datasets/cs240c-wi22-a00-public/data/Assignment2-gz/sphinx3_2520B.trace.gz
CPU 0 L1D next line prefetcher
CPU 0 L2C IP-based stride prefetcher
Initialize SRRIP state
Heartbeat CPU 0 instructions: 1000003 cycles: 338965 heartbeat IPC: 2.95017 cumulative IPC: 2.95017 (Simulation time: 0 hr 0 min 29 sec) 
Heartbeat CPU 0 instructions: 2000000 cycles: 737243 heartbeat IPC: 2.5108 cumulative IPC: 2.71281 (Simulation time: 0 hr 0 min 59 sec) 
Heartbeat CPU 0 instructions: 3000003 cycles: 1185241 heartbeat IPC: 2.23216 cumulative IPC: 2.53113 (Simulation time: 0 hr 1 min 24 sec) 
Heartbeat CPU 0 instructions: 4000000 cycles: 1524269 heartbeat IPC: 2.9496 cumulative IPC: 2.62421 (Simulation time: 0 hr 1 min 51 sec) 
Heartbeat CPU 0 instructions: 5000001 cycles: 1902431 heartbeat IPC: 2.64437 cumulative IPC: 2.62822 (Simulation time: 0 hr 2 min 23 sec) 
Heartbeat CPU 0 instructions: 6000001 cycles: 2367864 heartbeat IPC: 2.14854 cumulative IPC: 2.53393 (Simulation time: 0 hr 2 min 51 sec) 
Heartbeat CPU 0 instructions: 7000001 cycles: 2706805 heartbeat IPC: 2.95037 cumulative IPC: 2.58608 (Simulation time: 0 hr 3 min 20 sec) 
Heartbeat CPU 0 instructions: 8000000 cycles: 3055830 heartbeat IPC: 2.86512 cumulative IPC: 2.61795 (Simulation time: 0 hr 3 min 50 sec) 
Heartbeat CPU 0 instructions: 9000000 cycles: 3509267 heartbeat IPC: 2.20538 cumulative IPC: 2.56464 (Simulation time: 0 hr 4 min 18 sec) 
Heartbeat CPU 0 instructions: 10000000 cycles: 3859424 heartbeat IPC: 2.85586 cumulative IPC: 2.59106 (Simulation time: 0 hr 4 min 46 sec) 

Warmup complete CPU 0 instructions: 10000004 cycles: 3859425 (Simulation time: 0 hr 4 min 46 sec) 

Heartbeat CPU 0 instructions: 11000001 cycles: 4651968 heartbeat IPC: 1.26176 cumulative IPC: 1.26176 (Simulation time: 0 hr 5 min 18 sec) 
Heartbeat CPU 0 instructions: 12000000 cycles: 5508532 heartbeat IPC: 1.16745 cumulative IPC: 1.21278 (Simulation time: 0 hr 5 min 49 sec) 
Heartbeat CPU 0 instructions: 13000002 cycles: 6367944 heartbeat IPC: 1.16359 cumulative IPC: 1.19592 (Simulation time: 0 hr 6 min 23 sec) 
Heartbeat CPU 0 instructions: 14000002 cycles: 7143260 heartbeat IPC: 1.2898 cumulative IPC: 1.21809 (Simulation time: 0 hr 6 min 55 sec) 
Heartbeat CPU 0 instructions: 15000003 cycles: 8012883 heartbeat IPC: 1.14992 cumulative IPC: 1.20382 (Simulation time: 0 hr 7 min 26 sec) 
Heartbeat CPU 0 instructions: 16000000 cycles: 8850865 heartbeat IPC: 1.19334 cumulative IPC: 1.20206 (Simulation time: 0 hr 7 min 58 sec) 
Heartbeat CPU 0 instructions: 17000000 cycles: 9613519 heartbeat IPC: 1.31121 cumulative IPC: 1.21652 (Simulation time: 0 hr 8 min 28 sec) 
Heartbeat CPU 0 instructions: 18000002 cycles: 10463284 heartbeat IPC: 1.1768 cumulative IPC: 1.21141 (Simulation time: 0 hr 8 min 58 sec) 
Heartbeat CPU 0 instructions: 19000001 cycles: 11284363 heartbeat IPC: 1.21791 cumulative IPC: 1.21213 (Simulation time: 0 hr 9 min 29 sec) 
Heartbeat CPU 0 instructions: 20000000 cycles: 12035621 heartbeat IPC: 1.3311 cumulative IPC: 1.22306 (Simulation time: 0 hr 9 min 59 sec) 
Heartbeat CPU 0 instructions: 21000001 cycles: 13200999 heartbeat IPC: 0.858092 cumulative IPC: 1.17753 (Simulation time: 0 hr 10 min 33 sec) 
Heartbeat CPU 0 instructions: 22000002 cycles: 14150265 heartbeat IPC: 1.05345 cumulative IPC: 1.16609 (Simulation time: 0 hr 11 min 4 sec) 
Heartbeat CPU 0 instructions: 23000001 cycles: 14968200 heartbeat IPC: 1.22259 cumulative IPC: 1.17025 (Simulation time: 0 hr 11 min 34 sec) 
Heartbeat CPU 0 instructions: 24000000 cycles: 15747226 heartbeat IPC: 1.28365 cumulative IPC: 1.17768 (Simulation time: 0 hr 12 min 3 sec) 
Heartbeat CPU 0 instructions: 25000003 cycles: 16556354 heartbeat IPC: 1.2359 cumulative IPC: 1.18139 (Simulation time: 0 hr 12 min 33 sec) 
Heartbeat CPU 0 instructions: 26000001 cycles: 17356936 heartbeat IPC: 1.24909 cumulative IPC: 1.1854 (Simulation time: 0 hr 13 min 4 sec) 
Heartbeat CPU 0 instructions: 27000000 cycles: 18123099 heartbeat IPC: 1.3052 cumulative IPC: 1.19184 (Simulation time: 0 hr 13 min 33 sec) 
Heartbeat CPU 0 instructions: 28000000 cycles: 18939260 heartbeat IPC: 1.22525 cumulative IPC: 1.19365 (Simulation time: 0 hr 14 min 5 sec) 
Heartbeat CPU 0 instructions: 29000003 cycles: 19749426 heartbeat IPC: 1.23432 cumulative IPC: 1.19572 (Simulation time: 0 hr 14 min 35 sec) 
Heartbeat CPU 0 instructions: 30000003 cycles: 20514906 heartbeat IPC: 1.30637 cumulative IPC: 1.20081 (Simulation time: 0 hr 15 min 6 sec) 
Heartbeat CPU 0 instructions: 31000001 cycles: 21315908 heartbeat IPC: 1.24843 cumulative IPC: 1.20299 (Simulation time: 0 hr 15 min 35 sec) 
Heartbeat CPU 0 instructions: 32000000 cycles: 22112663 heartbeat IPC: 1.25509 cumulative IPC: 1.20527 (Simulation time: 0 hr 16 min 5 sec) 
Heartbeat CPU 0 instructions: 33000000 cycles: 22888614 heartbeat IPC: 1.28874 cumulative IPC: 1.20867 (Simulation time: 0 hr 16 min 34 sec) 
Heartbeat CPU 0 instructions: 34000000 cycles: 23686622 heartbeat IPC: 1.25312 cumulative IPC: 1.21046 (Simulation time: 0 hr 17 min 3 sec) 
Heartbeat CPU 0 instructions: 35000002 cycles: 24482905 heartbeat IPC: 1.25584 cumulative IPC: 1.21221 (Simulation time: 0 hr 17 min 32 sec) 
Heartbeat CPU 0 instructions: 36000000 cycles: 25234129 heartbeat IPC: 1.33116 cumulative IPC: 1.21639 (Simulation time: 0 hr 18 min 2 sec) 
Heartbeat CPU 0 instructions: 37000000 cycles: 26048329 heartbeat IPC: 1.2282 cumulative IPC: 1.21682 (Simulation time: 0 hr 18 min 31 sec) 
Heartbeat CPU 0 instructions: 38000002 cycles: 26847480 heartbeat IPC: 1.25133 cumulative IPC: 1.21802 (Simulation time: 0 hr 19 min 1 sec) 
Heartbeat CPU 0 instructions: 39000000 cycles: 27631153 heartbeat IPC: 1.27604 cumulative IPC: 1.21994 (Simulation time: 0 hr 19 min 31 sec) 
Heartbeat CPU 0 instructions: 40000000 cycles: 28456646 heartbeat IPC: 1.2114 cumulative IPC: 1.21965 (Simulation time: 0 hr 20 min 0 sec) 
Heartbeat CPU 0 instructions: 41000001 cycles: 29245788 heartbeat IPC: 1.2672 cumulative IPC: 1.22113 (Simulation time: 0 hr 20 min 30 sec) 
Heartbeat CPU 0 instructions: 42000002 cycles: 30033078 heartbeat IPC: 1.27018 cumulative IPC: 1.2226 (Simulation time: 0 hr 21 min 1 sec) 
Heartbeat CPU 0 instructions: 43000001 cycles: 30830021 heartbeat IPC: 1.25479 cumulative IPC: 1.22355 (Simulation time: 0 hr 21 min 30 sec) 
Heartbeat CPU 0 instructions: 44000000 cycles: 31613864 heartbeat IPC: 1.27576 cumulative IPC: 1.22503 (Simulation time: 0 hr 21 min 59 sec) 
Heartbeat CPU 0 instructions: 45000001 cycles: 32394547 heartbeat IPC: 1.28093 cumulative IPC: 1.22656 (Simulation time: 0 hr 22 min 30 sec) 
Heartbeat CPU 0 instructions: 46000001 cycles: 33215778 heartbeat IPC: 1.21768 cumulative IPC: 1.22631 (Simulation time: 0 hr 23 min 1 sec) 
Heartbeat CPU 0 instructions: 47000003 cycles: 33997107 heartbeat IPC: 1.27987 cumulative IPC: 1.2277 (Simulation time: 0 hr 23 min 30 sec) 
Heartbeat CPU 0 instructions: 48000000 cycles: 34783121 heartbeat IPC: 1.27224 cumulative IPC: 1.22883 (Simulation time: 0 hr 23 min 58 sec) 
Heartbeat CPU 0 instructions: 49000002 cycles: 35566559 heartbeat IPC: 1.27643 cumulative IPC: 1.23001 (Simulation time: 0 hr 24 min 25 sec) 
Heartbeat CPU 0 instructions: 50000002 cycles: 36342398 heartbeat IPC: 1.28893 cumulative IPC: 1.23141 (Simulation time: 0 hr 24 min 52 sec) 
Heartbeat CPU 0 instructions: 51000001 cycles: 37129947 heartbeat IPC: 1.26976 cumulative IPC: 1.23232 (Simulation time: 0 hr 25 min 22 sec) 
Heartbeat CPU 0 instructions: 52000000 cycles: 37903089 heartbeat IPC: 1.29342 cumulative IPC: 1.23371 (Simulation time: 0 hr 25 min 50 sec) 
Heartbeat CPU 0 instructions: 53000001 cycles: 38683191 heartbeat IPC: 1.28188 cumulative IPC: 1.23479 (Simulation time: 0 hr 26 min 19 sec) 
Heartbeat CPU 0 instructions: 54000001 cycles: 39447777 heartbeat IPC: 1.3079 cumulative IPC: 1.23636 (Simulation time: 0 hr 26 min 49 sec) 
Heartbeat CPU 0 instructions: 55000000 cycles: 40211374 heartbeat IPC: 1.30959 cumulative IPC: 1.2379 (Simulation time: 0 hr 27 min 17 sec) 
Heartbeat CPU 0 instructions: 56000000 cycles: 40982677 heartbeat IPC: 1.29651 cumulative IPC: 1.23912 (Simulation time: 0 hr 27 min 47 sec) 
Heartbeat CPU 0 instructions: 57000000 cycles: 41862756 heartbeat IPC: 1.13626 cumulative IPC: 1.23673 (Simulation time: 0 hr 28 min 16 sec) 
Heartbeat CPU 0 instructions: 58000002 cycles: 42991339 heartbeat IPC: 0.886069 cumulative IPC: 1.22662 (Simulation time: 0 hr 28 min 47 sec) 
Heartbeat CPU 0 instructions: 59000001 cycles: 43790447 heartbeat IPC: 1.25139 cumulative IPC: 1.22712 (Simulation time: 0 hr 29 min 18 sec) 
Heartbeat CPU 0 instructions: 60000000 cycles: 44571122 heartbeat IPC: 1.28094 cumulative IPC: 1.22815 (Simulation time: 0 hr 29 min 46 sec) 
Heartbeat CPU 0 instructions: 61000001 cycles: 45331721 heartbeat IPC: 1.31475 cumulative IPC: 1.22974 (Simulation time: 0 hr 30 min 14 sec) 
Heartbeat CPU 0 instructions: 62000000 cycles: 46107331 heartbeat IPC: 1.28931 cumulative IPC: 1.23083 (Simulation time: 0 hr 30 min 42 sec) 
Heartbeat CPU 0 instructions: 63000002 cycles: 46879428 heartbeat IPC: 1.29518 cumulative IPC: 1.23198 (Simulation time: 0 hr 31 min 11 sec) 
Heartbeat CPU 0 instructions: 64000000 cycles: 47653509 heartbeat IPC: 1.29185 cumulative IPC: 1.23304 (Simulation time: 0 hr 31 min 42 sec) 
Heartbeat CPU 0 instructions: 65000003 cycles: 48424825 heartbeat IPC: 1.29649 cumulative IPC: 1.23414 (Simulation time: 0 hr 32 min 9 sec) 
Heartbeat CPU 0 instructions: 66000000 cycles: 49196235 heartbeat IPC: 1.29632 cumulative IPC: 1.2352 (Simulation time: 0 hr 32 min 36 sec) 
Heartbeat CPU 0 instructions: 67000003 cycles: 50006772 heartbeat IPC: 1.23375 cumulative IPC: 1.23517 (Simulation time: 0 hr 33 min 7 sec) 
Heartbeat CPU 0 instructions: 68000000 cycles: 50786050 heartbeat IPC: 1.28324 cumulative IPC: 1.23597 (Simulation time: 0 hr 33 min 36 sec) 
Heartbeat CPU 0 instructions: 69000003 cycles: 51559443 heartbeat IPC: 1.29301 cumulative IPC: 1.2369 (Simulation time: 0 hr 34 min 4 sec) 
Heartbeat CPU 0 instructions: 70000000 cycles: 52351566 heartbeat IPC: 1.26243 cumulative IPC: 1.23731 (Simulation time: 0 hr 34 min 32 sec) 
Heartbeat CPU 0 instructions: 71000002 cycles: 53136629 heartbeat IPC: 1.27379 cumulative IPC: 1.23789 (Simulation time: 0 hr 35 min 0 sec) 
Heartbeat CPU 0 instructions: 72000000 cycles: 53902456 heartbeat IPC: 1.30578 cumulative IPC: 1.23893 (Simulation time: 0 hr 35 min 28 sec) 
Heartbeat CPU 0 instructions: 73000003 cycles: 54686915 heartbeat IPC: 1.27477 cumulative IPC: 1.23949 (Simulation time: 0 hr 35 min 58 sec) 
Heartbeat CPU 0 instructions: 74000003 cycles: 55464315 heartbeat IPC: 1.28634 cumulative IPC: 1.24019 (Simulation time: 0 hr 36 min 26 sec) 
Heartbeat CPU 0 instructions: 75000003 cycles: 56233313 heartbeat IPC: 1.30039 cumulative IPC: 1.24108 (Simulation time: 0 hr 36 min 56 sec) 
Heartbeat CPU 0 instructions: 76000000 cycles: 57017043 heartbeat IPC: 1.27595 cumulative IPC: 1.24159 (Simulation time: 0 hr 37 min 25 sec) 
Heartbeat CPU 0 instructions: 77000003 cycles: 57816045 heartbeat IPC: 1.25157 cumulative IPC: 1.24174 (Simulation time: 0 hr 37 min 56 sec) 
Heartbeat CPU 0 instructions: 78000003 cycles: 58583265 heartbeat IPC: 1.30341 cumulative IPC: 1.2426 (Simulation time: 0 hr 38 min 27 sec) 
Heartbeat CPU 0 instructions: 79000003 cycles: 59364048 heartbeat IPC: 1.28077 cumulative IPC: 1.24314 (Simulation time: 0 hr 38 min 58 sec) 
Heartbeat CPU 0 instructions: 80000000 cycles: 60153559 heartbeat IPC: 1.2666 cumulative IPC: 1.24347 (Simulation time: 0 hr 39 min 28 sec) 
Heartbeat CPU 0 instructions: 81000001 cycles: 60917509 heartbeat IPC: 1.30899 cumulative IPC: 1.24435 (Simulation time: 0 hr 39 min 59 sec) 
Heartbeat CPU 0 instructions: 82000002 cycles: 61700434 heartbeat IPC: 1.27726 cumulative IPC: 1.24479 (Simulation time: 0 hr 40 min 29 sec) 
Heartbeat CPU 0 instructions: 83000003 cycles: 62503957 heartbeat IPC: 1.24452 cumulative IPC: 1.24479 (Simulation time: 0 hr 40 min 59 sec) 
Heartbeat CPU 0 instructions: 84000000 cycles: 63264153 heartbeat IPC: 1.31545 cumulative IPC: 1.24569 (Simulation time: 0 hr 41 min 31 sec) 
Heartbeat CPU 0 instructions: 85000001 cycles: 64045967 heartbeat IPC: 1.27908 cumulative IPC: 1.24613 (Simulation time: 0 hr 42 min 1 sec) 
Heartbeat CPU 0 instructions: 86000000 cycles: 64819010 heartbeat IPC: 1.29359 cumulative IPC: 1.24673 (Simulation time: 0 hr 42 min 31 sec) 
Heartbeat CPU 0 instructions: 87000003 cycles: 65582017 heartbeat IPC: 1.31061 cumulative IPC: 1.24752 (Simulation time: 0 hr 43 min 0 sec) 
Heartbeat CPU 0 instructions: 88000000 cycles: 66366547 heartbeat IPC: 1.27464 cumulative IPC: 1.24786 (Simulation time: 0 hr 43 min 29 sec) 
Heartbeat CPU 0 instructions: 89000002 cycles: 67134884 heartbeat IPC: 1.30151 cumulative IPC: 1.24851 (Simulation time: 0 hr 43 min 59 sec) 
Heartbeat CPU 0 instructions: 90000001 cycles: 67884885 heartbeat IPC: 1.33333 cumulative IPC: 1.2495 (Simulation time: 0 hr 44 min 30 sec) 
Heartbeat CPU 0 instructions: 91000001 cycles: 68669097 heartbeat IPC: 1.27517 cumulative IPC: 1.24981 (Simulation time: 0 hr 45 min 1 sec) 
Heartbeat CPU 0 instructions: 92000000 cycles: 69435648 heartbeat IPC: 1.30454 cumulative IPC: 1.25045 (Simulation time: 0 hr 45 min 31 sec) 
Heartbeat CPU 0 instructions: 93000002 cycles: 70171841 heartbeat IPC: 1.35834 cumulative IPC: 1.25165 (Simulation time: 0 hr 46 min 1 sec) 
Heartbeat CPU 0 instructions: 94000000 cycles: 70975026 heartbeat IPC: 1.24504 cumulative IPC: 1.25157 (Simulation time: 0 hr 46 min 31 sec) 
Heartbeat CPU 0 instructions: 95000000 cycles: 71737313 heartbeat IPC: 1.31184 cumulative IPC: 1.25225 (Simulation time: 0 hr 47 min 0 sec) 
Heartbeat CPU 0 instructions: 96000000 cycles: 72499577 heartbeat IPC: 1.31188 cumulative IPC: 1.25291 (Simulation time: 0 hr 47 min 32 sec) 
Heartbeat CPU 0 instructions: 97000002 cycles: 73681165 heartbeat IPC: 0.84632 cumulative IPC: 1.24603 (Simulation time: 0 hr 48 min 3 sec) 
Heartbeat CPU 0 instructions: 98000003 cycles: 74607286 heartbeat IPC: 1.07977 cumulative IPC: 1.24385 (Simulation time: 0 hr 48 min 31 sec) 
Heartbeat CPU 0 instructions: 99000001 cycles: 75393265 heartbeat IPC: 1.2723 cumulative IPC: 1.24417 (Simulation time: 0 hr 48 min 57 sec) 
Heartbeat CPU 0 instructions: 100000000 cycles: 76159305 heartbeat IPC: 1.30541 cumulative IPC: 1.24482 (Simulation time: 0 hr 49 min 23 sec) 
Heartbeat CPU 0 instructions: 101000001 cycles: 77501883 heartbeat IPC: 0.744836 cumulative IPC: 1.2357 (Simulation time: 0 hr 49 min 50 sec) 
Heartbeat CPU 0 instructions: 102000002 cycles: 78313983 heartbeat IPC: 1.23138 cumulative IPC: 1.23565 (Simulation time: 0 hr 50 min 16 sec) 
Heartbeat CPU 0 instructions: 103000001 cycles: 79118478 heartbeat IPC: 1.24301 cumulative IPC: 1.23573 (Simulation time: 0 hr 50 min 41 sec) 
Heartbeat CPU 0 instructions: 104000000 cycles: 80342263 heartbeat IPC: 0.817136 cumulative IPC: 1.22903 (Simulation time: 0 hr 51 min 7 sec) 
Heartbeat CPU 0 instructions: 105000002 cycles: 81153525 heartbeat IPC: 1.23265 cumulative IPC: 1.22907 (Simulation time: 0 hr 51 min 33 sec) 
Heartbeat CPU 0 instructions: 106000000 cycles: 81947377 heartbeat IPC: 1.25968 cumulative IPC: 1.22938 (Simulation time: 0 hr 51 min 58 sec) 
Heartbeat CPU 0 instructions: 107000000 cycles: 83025321 heartbeat IPC: 0.927692 cumulative IPC: 1.22528 (Simulation time: 0 hr 52 min 25 sec) 
Heartbeat CPU 0 instructions: 108000000 cycles: 84002380 heartbeat IPC: 1.02348 cumulative IPC: 1.22281 (Simulation time: 0 hr 52 min 51 sec) 
Heartbeat CPU 0 instructions: 109000003 cycles: 84771631 heartbeat IPC: 1.29997 cumulative IPC: 1.22355 (Simulation time: 0 hr 53 min 16 sec) 
Heartbeat CPU 0 instructions: 110000000 cycles: 85626595 heartbeat IPC: 1.16964 cumulative IPC: 1.22298 (Simulation time: 0 hr 53 min 40 sec) 
Finished CPU 0 instructions: 100000003 cycles: 81767174 cummulative IPC: 1.22298 (Simulation time: 0 hr 53 min 40 sec) 

ChampSim completed all CPUs

Region of Interest Statistics

CPU 0 cummulative IPC: 1.22298 instructions: 100000003 cycles: 81767174
LLC TOTAL     ACCESS:    1445924  HIT:     834773  MISS:     611151
LLC LOAD      ACCESS:     118913  HIT:     100931  MISS:      17982
LLC RFO       ACCESS:     121984  HIT:     120575  MISS:       1409
LLC PREFETCH  ACCESS:    1076633  HIT:     485229  MISS:     591404
LLC WRITEBACK ACCESS:     128394  HIT:     128038  MISS:        356
Insertion Distribution: 
	LOAD 10327 0 13839 2556 
	RFO 1041 0 3540 0 
	PREF 0 8555 49931 614475 
	WRITEBACK 0 0 0 429 
Total Prefetch Downgrades: 5597
