
*** ChampSim Multicore Out-of-Order Simulator ***

Warmup Instructions: 10000000
Simulation Instructions: 100000000
Configuration: 2
Number of CPUs: 1
LLC sets: 2048
LLC ways: 16
Off-chip DRAM Channels: 1 Width: 64-bit Data Rate: 1600 MT/s

CPU 0 runs /datasets/cs240c-wi22-a00-public/data/Assignment2-gz/omnetpp_340B.trace.gz
CPU 0 L1D next line prefetcher
CPU 0 L2C IP-based stride prefetcher
Initialize SRRIP state
Heartbeat CPU 0 instructions: 1000001 cycles: 576945 heartbeat IPC: 1.73327 cumulative IPC: 1.73327 (Simulation time: 0 hr 0 min 38 sec) 
Heartbeat CPU 0 instructions: 2000000 cycles: 1160917 heartbeat IPC: 1.71241 cumulative IPC: 1.72278 (Simulation time: 0 hr 1 min 19 sec) 
Heartbeat CPU 0 instructions: 3000001 cycles: 1758205 heartbeat IPC: 1.67424 cumulative IPC: 1.70629 (Simulation time: 0 hr 1 min 55 sec) 
Heartbeat CPU 0 instructions: 4000000 cycles: 2379116 heartbeat IPC: 1.61054 cumulative IPC: 1.6813 (Simulation time: 0 hr 2 min 30 sec) 
Heartbeat CPU 0 instructions: 5000002 cycles: 2954485 heartbeat IPC: 1.73802 cumulative IPC: 1.69234 (Simulation time: 0 hr 3 min 6 sec) 
Heartbeat CPU 0 instructions: 6000003 cycles: 3555915 heartbeat IPC: 1.66271 cumulative IPC: 1.68733 (Simulation time: 0 hr 3 min 42 sec) 
Heartbeat CPU 0 instructions: 7000003 cycles: 4205343 heartbeat IPC: 1.53982 cumulative IPC: 1.66455 (Simulation time: 0 hr 4 min 21 sec) 
Heartbeat CPU 0 instructions: 8000000 cycles: 4799986 heartbeat IPC: 1.68168 cumulative IPC: 1.66667 (Simulation time: 0 hr 4 min 57 sec) 
Heartbeat CPU 0 instructions: 9000002 cycles: 5433424 heartbeat IPC: 1.57869 cumulative IPC: 1.65641 (Simulation time: 0 hr 5 min 33 sec) 
Heartbeat CPU 0 instructions: 10000002 cycles: 6027949 heartbeat IPC: 1.68202 cumulative IPC: 1.65894 (Simulation time: 0 hr 6 min 8 sec) 

Warmup complete CPU 0 instructions: 10000002 cycles: 6027949 (Simulation time: 0 hr 6 min 8 sec) 

Heartbeat CPU 0 instructions: 11000000 cycles: 9685543 heartbeat IPC: 0.273403 cumulative IPC: 0.273403 (Simulation time: 0 hr 6 min 50 sec) 
Heartbeat CPU 0 instructions: 12000000 cycles: 13157675 heartbeat IPC: 0.288007 cumulative IPC: 0.280515 (Simulation time: 0 hr 7 min 32 sec) 
Heartbeat CPU 0 instructions: 13000000 cycles: 17013402 heartbeat IPC: 0.259354 cumulative IPC: 0.273088 (Simulation time: 0 hr 8 min 17 sec) 
Heartbeat CPU 0 instructions: 14000001 cycles: 20830231 heartbeat IPC: 0.261998 cumulative IPC: 0.270229 (Simulation time: 0 hr 9 min 0 sec) 
Heartbeat CPU 0 instructions: 15000003 cycles: 24681332 heartbeat IPC: 0.259667 cumulative IPC: 0.268048 (Simulation time: 0 hr 9 min 47 sec) 
Heartbeat CPU 0 instructions: 16000000 cycles: 28796274 heartbeat IPC: 0.243016 cumulative IPC: 0.263524 (Simulation time: 0 hr 10 min 34 sec) 
Heartbeat CPU 0 instructions: 17000000 cycles: 32530533 heartbeat IPC: 0.267791 cumulative IPC: 0.264125 (Simulation time: 0 hr 11 min 21 sec) 
Heartbeat CPU 0 instructions: 18000000 cycles: 36412460 heartbeat IPC: 0.257604 cumulative IPC: 0.263292 (Simulation time: 0 hr 12 min 7 sec) 
Heartbeat CPU 0 instructions: 19000000 cycles: 40704247 heartbeat IPC: 0.233003 cumulative IPC: 0.259543 (Simulation time: 0 hr 12 min 55 sec) 
Heartbeat CPU 0 instructions: 20000000 cycles: 44723557 heartbeat IPC: 0.248799 cumulative IPC: 0.258427 (Simulation time: 0 hr 13 min 40 sec) 
Heartbeat CPU 0 instructions: 21000000 cycles: 48176580 heartbeat IPC: 0.289601 cumulative IPC: 0.260981 (Simulation time: 0 hr 14 min 26 sec) 
Heartbeat CPU 0 instructions: 22000001 cycles: 52052307 heartbeat IPC: 0.258016 cumulative IPC: 0.260731 (Simulation time: 0 hr 15 min 10 sec) 
Heartbeat CPU 0 instructions: 23000001 cycles: 55861019 heartbeat IPC: 0.262556 cumulative IPC: 0.260871 (Simulation time: 0 hr 16 min 1 sec) 
Heartbeat CPU 0 instructions: 24000000 cycles: 59629217 heartbeat IPC: 0.265379 cumulative IPC: 0.261188 (Simulation time: 0 hr 16 min 48 sec) 
Heartbeat CPU 0 instructions: 25000000 cycles: 63664537 heartbeat IPC: 0.247812 cumulative IPC: 0.260251 (Simulation time: 0 hr 17 min 31 sec) 
Heartbeat CPU 0 instructions: 26000001 cycles: 67703817 heartbeat IPC: 0.247569 cumulative IPC: 0.259421 (Simulation time: 0 hr 18 min 14 sec) 
Heartbeat CPU 0 instructions: 27000000 cycles: 71721007 heartbeat IPC: 0.24893 cumulative IPC: 0.258779 (Simulation time: 0 hr 18 min 58 sec) 
Heartbeat CPU 0 instructions: 28000000 cycles: 75742158 heartbeat IPC: 0.248685 cumulative IPC: 0.258197 (Simulation time: 0 hr 19 min 47 sec) 
Heartbeat CPU 0 instructions: 29000003 cycles: 79777642 heartbeat IPC: 0.247802 cumulative IPC: 0.257628 (Simulation time: 0 hr 20 min 32 sec) 
Heartbeat CPU 0 instructions: 30000000 cycles: 83371502 heartbeat IPC: 0.278252 cumulative IPC: 0.258586 (Simulation time: 0 hr 21 min 15 sec) 
Heartbeat CPU 0 instructions: 31000000 cycles: 87201620 heartbeat IPC: 0.261089 cumulative IPC: 0.258705 (Simulation time: 0 hr 22 min 0 sec) 
Heartbeat CPU 0 instructions: 32000000 cycles: 90951157 heartbeat IPC: 0.2667 cumulative IPC: 0.259058 (Simulation time: 0 hr 22 min 43 sec) 
Heartbeat CPU 0 instructions: 33000003 cycles: 94670998 heartbeat IPC: 0.268829 cumulative IPC: 0.259468 (Simulation time: 0 hr 23 min 26 sec) 
Heartbeat CPU 0 instructions: 34000001 cycles: 98809861 heartbeat IPC: 0.241612 cumulative IPC: 0.258671 (Simulation time: 0 hr 24 min 11 sec) 
Heartbeat CPU 0 instructions: 35000002 cycles: 102323444 heartbeat IPC: 0.28461 cumulative IPC: 0.259618 (Simulation time: 0 hr 24 min 55 sec) 
Heartbeat CPU 0 instructions: 36000000 cycles: 106583365 heartbeat IPC: 0.234746 cumulative IPC: 0.258564 (Simulation time: 0 hr 25 min 42 sec) 
Heartbeat CPU 0 instructions: 37000000 cycles: 110924290 heartbeat IPC: 0.230366 cumulative IPC: 0.257397 (Simulation time: 0 hr 26 min 30 sec) 
Heartbeat CPU 0 instructions: 38000000 cycles: 114682693 heartbeat IPC: 0.26607 cumulative IPC: 0.257697 (Simulation time: 0 hr 27 min 20 sec) 
Heartbeat CPU 0 instructions: 39000001 cycles: 118818997 heartbeat IPC: 0.241762 cumulative IPC: 0.257113 (Simulation time: 0 hr 28 min 4 sec) 
Heartbeat CPU 0 instructions: 40000000 cycles: 122279248 heartbeat IPC: 0.288996 cumulative IPC: 0.258062 (Simulation time: 0 hr 28 min 49 sec) 
Heartbeat CPU 0 instructions: 41000000 cycles: 125956809 heartbeat IPC: 0.271919 cumulative IPC: 0.258487 (Simulation time: 0 hr 29 min 31 sec) 
Heartbeat CPU 0 instructions: 42000001 cycles: 130196872 heartbeat IPC: 0.235846 cumulative IPC: 0.257713 (Simulation time: 0 hr 30 min 18 sec) 
Heartbeat CPU 0 instructions: 43000001 cycles: 134306107 heartbeat IPC: 0.243354 cumulative IPC: 0.257253 (Simulation time: 0 hr 31 min 5 sec) 
Heartbeat CPU 0 instructions: 44000000 cycles: 137998270 heartbeat IPC: 0.270844 cumulative IPC: 0.257634 (Simulation time: 0 hr 31 min 53 sec) 
Heartbeat CPU 0 instructions: 45000003 cycles: 141868643 heartbeat IPC: 0.258374 cumulative IPC: 0.257655 (Simulation time: 0 hr 32 min 35 sec) 
Heartbeat CPU 0 instructions: 46000003 cycles: 145943007 heartbeat IPC: 0.245437 cumulative IPC: 0.257299 (Simulation time: 0 hr 33 min 21 sec) 
Heartbeat CPU 0 instructions: 47000000 cycles: 149184743 heartbeat IPC: 0.308476 cumulative IPC: 0.258458 (Simulation time: 0 hr 34 min 2 sec) 
Heartbeat CPU 0 instructions: 48000000 cycles: 153182945 heartbeat IPC: 0.250112 cumulative IPC: 0.258231 (Simulation time: 0 hr 34 min 47 sec) 
Heartbeat CPU 0 instructions: 49000000 cycles: 156243412 heartbeat IPC: 0.326748 cumulative IPC: 0.259627 (Simulation time: 0 hr 35 min 26 sec) 
Heartbeat CPU 0 instructions: 50000001 cycles: 160318022 heartbeat IPC: 0.245423 cumulative IPC: 0.259252 (Simulation time: 0 hr 36 min 8 sec) 
Heartbeat CPU 0 instructions: 51000003 cycles: 164082054 heartbeat IPC: 0.265673 cumulative IPC: 0.259405 (Simulation time: 0 hr 36 min 53 sec) 
Heartbeat CPU 0 instructions: 52000000 cycles: 168108684 heartbeat IPC: 0.248346 cumulative IPC: 0.25913 (Simulation time: 0 hr 37 min 43 sec) 
Heartbeat CPU 0 instructions: 53000000 cycles: 172553638 heartbeat IPC: 0.224974 cumulative IPC: 0.258218 (Simulation time: 0 hr 38 min 28 sec) 
Heartbeat CPU 0 instructions: 54000002 cycles: 176607608 heartbeat IPC: 0.246672 cumulative IPC: 0.257944 (Simulation time: 0 hr 39 min 12 sec) 
Heartbeat CPU 0 instructions: 55000001 cycles: 180465396 heartbeat IPC: 0.259216 cumulative IPC: 0.257972 (Simulation time: 0 hr 39 min 58 sec) 
Heartbeat CPU 0 instructions: 56000000 cycles: 184728468 heartbeat IPC: 0.234572 cumulative IPC: 0.257414 (Simulation time: 0 hr 40 min 43 sec) 
Heartbeat CPU 0 instructions: 57000001 cycles: 188805151 heartbeat IPC: 0.245298 cumulative IPC: 0.257144 (Simulation time: 0 hr 41 min 26 sec) 
Heartbeat CPU 0 instructions: 58000000 cycles: 192100755 heartbeat IPC: 0.303434 cumulative IPC: 0.257964 (Simulation time: 0 hr 42 min 8 sec) 
Heartbeat CPU 0 instructions: 59000003 cycles: 195997578 heartbeat IPC: 0.25662 cumulative IPC: 0.257936 (Simulation time: 0 hr 42 min 53 sec) 
Heartbeat CPU 0 instructions: 60000000 cycles: 200350416 heartbeat IPC: 0.229734 cumulative IPC: 0.257304 (Simulation time: 0 hr 43 min 43 sec) 
Heartbeat CPU 0 instructions: 61000001 cycles: 204611217 heartbeat IPC: 0.234698 cumulative IPC: 0.256819 (Simulation time: 0 hr 44 min 32 sec) 
Heartbeat CPU 0 instructions: 62000000 cycles: 208873789 heartbeat IPC: 0.2346 cumulative IPC: 0.256352 (Simulation time: 0 hr 45 min 14 sec) 
Heartbeat CPU 0 instructions: 63000001 cycles: 212530081 heartbeat IPC: 0.273501 cumulative IPC: 0.256656 (Simulation time: 0 hr 45 min 56 sec) 
Heartbeat CPU 0 instructions: 64000000 cycles: 216322228 heartbeat IPC: 0.263703 cumulative IPC: 0.256783 (Simulation time: 0 hr 46 min 39 sec) 
Heartbeat CPU 0 instructions: 65000001 cycles: 219842548 heartbeat IPC: 0.284065 cumulative IPC: 0.257232 (Simulation time: 0 hr 47 min 23 sec) 
Heartbeat CPU 0 instructions: 66000002 cycles: 223958121 heartbeat IPC: 0.24298 cumulative IPC: 0.256963 (Simulation time: 0 hr 48 min 6 sec) 
Heartbeat CPU 0 instructions: 67000002 cycles: 227845728 heartbeat IPC: 0.257228 cumulative IPC: 0.256968 (Simulation time: 0 hr 48 min 48 sec) 
Heartbeat CPU 0 instructions: 68000000 cycles: 231687348 heartbeat IPC: 0.260306 cumulative IPC: 0.257025 (Simulation time: 0 hr 49 min 29 sec) 
Heartbeat CPU 0 instructions: 69000000 cycles: 235674064 heartbeat IPC: 0.250833 cumulative IPC: 0.256917 (Simulation time: 0 hr 50 min 10 sec) 
Heartbeat CPU 0 instructions: 70000001 cycles: 239326472 heartbeat IPC: 0.273792 cumulative IPC: 0.257181 (Simulation time: 0 hr 50 min 50 sec) 
Heartbeat CPU 0 instructions: 71000003 cycles: 243228542 heartbeat IPC: 0.256275 cumulative IPC: 0.257166 (Simulation time: 0 hr 51 min 32 sec) 
Heartbeat CPU 0 instructions: 72000000 cycles: 247599099 heartbeat IPC: 0.228803 cumulative IPC: 0.256653 (Simulation time: 0 hr 52 min 13 sec) 
Heartbeat CPU 0 instructions: 73000002 cycles: 251601412 heartbeat IPC: 0.249856 cumulative IPC: 0.256542 (Simulation time: 0 hr 52 min 51 sec) 
Heartbeat CPU 0 instructions: 74000000 cycles: 255454195 heartbeat IPC: 0.259552 cumulative IPC: 0.256589 (Simulation time: 0 hr 53 min 28 sec) 
Heartbeat CPU 0 instructions: 75000003 cycles: 259475847 heartbeat IPC: 0.248655 cumulative IPC: 0.256463 (Simulation time: 0 hr 54 min 4 sec) 
Heartbeat CPU 0 instructions: 76000000 cycles: 263280885 heartbeat IPC: 0.262809 cumulative IPC: 0.256557 (Simulation time: 0 hr 54 min 36 sec) 
Heartbeat CPU 0 instructions: 77000002 cycles: 267752659 heartbeat IPC: 0.223625 cumulative IPC: 0.255994 (Simulation time: 0 hr 55 min 7 sec) 
Heartbeat CPU 0 instructions: 78000003 cycles: 271534246 heartbeat IPC: 0.264439 cumulative IPC: 0.256114 (Simulation time: 0 hr 55 min 37 sec) 
Heartbeat CPU 0 instructions: 79000002 cycles: 275395702 heartbeat IPC: 0.258969 cumulative IPC: 0.256155 (Simulation time: 0 hr 56 min 7 sec) 
Heartbeat CPU 0 instructions: 80000000 cycles: 279225575 heartbeat IPC: 0.261105 cumulative IPC: 0.256225 (Simulation time: 0 hr 56 min 37 sec) 
Heartbeat CPU 0 instructions: 81000002 cycles: 283333954 heartbeat IPC: 0.243405 cumulative IPC: 0.256035 (Simulation time: 0 hr 57 min 7 sec) 
Heartbeat CPU 0 instructions: 82000000 cycles: 287798080 heartbeat IPC: 0.224008 cumulative IPC: 0.255527 (Simulation time: 0 hr 57 min 36 sec) 
Heartbeat CPU 0 instructions: 83000002 cycles: 291519809 heartbeat IPC: 0.268693 cumulative IPC: 0.255699 (Simulation time: 0 hr 58 min 4 sec) 
Heartbeat CPU 0 instructions: 84000000 cycles: 295460727 heartbeat IPC: 0.253747 cumulative IPC: 0.255672 (Simulation time: 0 hr 58 min 31 sec) 
Heartbeat CPU 0 instructions: 85000000 cycles: 299358243 heartbeat IPC: 0.256574 cumulative IPC: 0.255684 (Simulation time: 0 hr 58 min 54 sec) 
Heartbeat CPU 0 instructions: 86000000 cycles: 303398320 heartbeat IPC: 0.24752 cumulative IPC: 0.255574 (Simulation time: 0 hr 59 min 19 sec) 
Heartbeat CPU 0 instructions: 87000001 cycles: 307163263 heartbeat IPC: 0.265609 cumulative IPC: 0.255699 (Simulation time: 0 hr 59 min 42 sec) 
Heartbeat CPU 0 instructions: 88000000 cycles: 310985115 heartbeat IPC: 0.261653 cumulative IPC: 0.255774 (Simulation time: 1 hr 0 min 5 sec) 
Heartbeat CPU 0 instructions: 89000003 cycles: 314519245 heartbeat IPC: 0.282956 cumulative IPC: 0.256085 (Simulation time: 1 hr 0 min 26 sec) 
Heartbeat CPU 0 instructions: 90000000 cycles: 318411960 heartbeat IPC: 0.256889 cumulative IPC: 0.256095 (Simulation time: 1 hr 0 min 46 sec) 
Heartbeat CPU 0 instructions: 91000001 cycles: 321967242 heartbeat IPC: 0.281272 cumulative IPC: 0.256378 (Simulation time: 1 hr 1 min 5 sec) 
Heartbeat CPU 0 instructions: 92000000 cycles: 325983365 heartbeat IPC: 0.248996 cumulative IPC: 0.256286 (Simulation time: 1 hr 1 min 23 sec) 
Heartbeat CPU 0 instructions: 93000001 cycles: 330357920 heartbeat IPC: 0.228595 cumulative IPC: 0.255912 (Simulation time: 1 hr 1 min 39 sec) 
Heartbeat CPU 0 instructions: 94000001 cycles: 334143974 heartbeat IPC: 0.264127 cumulative IPC: 0.256007 (Simulation time: 1 hr 1 min 55 sec) 
Heartbeat CPU 0 instructions: 95000000 cycles: 338096975 heartbeat IPC: 0.252972 cumulative IPC: 0.255971 (Simulation time: 1 hr 2 min 12 sec) 
Heartbeat CPU 0 instructions: 96000000 cycles: 342377318 heartbeat IPC: 0.233626 cumulative IPC: 0.255687 (Simulation time: 1 hr 2 min 28 sec) 
Heartbeat CPU 0 instructions: 97000000 cycles: 346005954 heartbeat IPC: 0.275586 cumulative IPC: 0.255899 (Simulation time: 1 hr 2 min 43 sec) 
Heartbeat CPU 0 instructions: 98000000 cycles: 350165278 heartbeat IPC: 0.240424 cumulative IPC: 0.255712 (Simulation time: 1 hr 2 min 58 sec) 
Heartbeat CPU 0 instructions: 99000000 cycles: 354540591 heartbeat IPC: 0.228555 cumulative IPC: 0.255371 (Simulation time: 1 hr 3 min 12 sec) 
Heartbeat CPU 0 instructions: 100000000 cycles: 358604900 heartbeat IPC: 0.246044 cumulative IPC: 0.255263 (Simulation time: 1 hr 3 min 22 sec) 
Heartbeat CPU 0 instructions: 101000000 cycles: 362538917 heartbeat IPC: 0.254193 cumulative IPC: 0.255252 (Simulation time: 1 hr 3 min 30 sec) 
Heartbeat CPU 0 instructions: 102000003 cycles: 366749042 heartbeat IPC: 0.237523 cumulative IPC: 0.255045 (Simulation time: 1 hr 3 min 40 sec) 
Heartbeat CPU 0 instructions: 103000000 cycles: 370640684 heartbeat IPC: 0.25696 cumulative IPC: 0.255065 (Simulation time: 1 hr 3 min 49 sec) 
Heartbeat CPU 0 instructions: 104000000 cycles: 374431183 heartbeat IPC: 0.263818 cumulative IPC: 0.255155 (Simulation time: 1 hr 3 min 57 sec) 
Heartbeat CPU 0 instructions: 105000003 cycles: 378503467 heartbeat IPC: 0.245563 cumulative IPC: 0.25505 (Simulation time: 1 hr 4 min 5 sec) 
Heartbeat CPU 0 instructions: 106000001 cycles: 382111362 heartbeat IPC: 0.277169 cumulative IPC: 0.255263 (Simulation time: 1 hr 4 min 12 sec) 
Heartbeat CPU 0 instructions: 107000000 cycles: 386248759 heartbeat IPC: 0.241698 cumulative IPC: 0.255115 (Simulation time: 1 hr 4 min 20 sec) 
Heartbeat CPU 0 instructions: 108000000 cycles: 390174969 heartbeat IPC: 0.254699 cumulative IPC: 0.255111 (Simulation time: 1 hr 4 min 27 sec) 
Heartbeat CPU 0 instructions: 109000000 cycles: 394548081 heartbeat IPC: 0.22867 cumulative IPC: 0.254813 (Simulation time: 1 hr 4 min 35 sec) 
Heartbeat CPU 0 instructions: 110000000 cycles: 398177362 heartbeat IPC: 0.275537 cumulative IPC: 0.255005 (Simulation time: 1 hr 4 min 40 sec) 
Finished CPU 0 instructions: 100000000 cycles: 392149417 cummulative IPC: 0.255005 (Simulation time: 1 hr 4 min 40 sec) 

ChampSim completed all CPUs

Region of Interest Statistics

CPU 0 cummulative IPC: 0.255005 instructions: 100000000 cycles: 392149417
LLC TOTAL     ACCESS:    4309295  HIT:    1393546  MISS:    2915749
LLC LOAD      ACCESS:    1522992  HIT:     451400  MISS:    1071592
LLC RFO       ACCESS:     250369  HIT:      90406  MISS:     159963
LLC PREFETCH  ACCESS:    1529898  HIT:     186846  MISS:    1343052
LLC WRITEBACK ACCESS:    1006036  HIT:     664894  MISS:     341142
Insertion Distribution: 
	LOAD 209284 0 180770 779795 
	RFO 72999 0 51264 52408 
	PREF 0 13198 68331 1408890 
	WRITEBACK 0 0 0 371715 
Total Prefetch Downgrades: 20206
