
*** ChampSim Multicore Out-of-Order Simulator ***

Warmup Instructions: 10000000
Simulation Instructions: 100000000
Configuration: 2
Number of CPUs: 1
LLC sets: 2048
LLC ways: 16
Off-chip DRAM Channels: 1 Width: 64-bit Data Rate: 1600 MT/s

CPU 0 runs /datasets/cs240c-wi22-a00-public/data/Assignment2-gz/calculix_3812B.trace.gz
CPU 0 L1D next line prefetcher
CPU 0 L2C IP-based stride prefetcher
Initialize SRRIP state
Heartbeat CPU 0 instructions: 1000001 cycles: 478689 heartbeat IPC: 2.08904 cumulative IPC: 2.08904 (Simulation time: 0 hr 0 min 32 sec) 
Heartbeat CPU 0 instructions: 2000002 cycles: 956483 heartbeat IPC: 2.09295 cumulative IPC: 2.091 (Simulation time: 0 hr 1 min 0 sec) 
Heartbeat CPU 0 instructions: 3000002 cycles: 1434999 heartbeat IPC: 2.08979 cumulative IPC: 2.0906 (Simulation time: 0 hr 1 min 29 sec) 
Heartbeat CPU 0 instructions: 4000000 cycles: 1907482 heartbeat IPC: 2.11647 cumulative IPC: 2.09701 (Simulation time: 0 hr 1 min 57 sec) 
Heartbeat CPU 0 instructions: 5000000 cycles: 2356309 heartbeat IPC: 2.22803 cumulative IPC: 2.12196 (Simulation time: 0 hr 2 min 22 sec) 
Heartbeat CPU 0 instructions: 6000003 cycles: 2761685 heartbeat IPC: 2.46685 cumulative IPC: 2.17259 (Simulation time: 0 hr 2 min 43 sec) 
Heartbeat CPU 0 instructions: 7000002 cycles: 3154795 heartbeat IPC: 2.54381 cumulative IPC: 2.21885 (Simulation time: 0 hr 3 min 5 sec) 
Heartbeat CPU 0 instructions: 8000000 cycles: 3547936 heartbeat IPC: 2.54361 cumulative IPC: 2.25483 (Simulation time: 0 hr 3 min 26 sec) 
Heartbeat CPU 0 instructions: 9000000 cycles: 3940925 heartbeat IPC: 2.5446 cumulative IPC: 2.28373 (Simulation time: 0 hr 3 min 46 sec) 
Heartbeat CPU 0 instructions: 10000003 cycles: 4334014 heartbeat IPC: 2.54396 cumulative IPC: 2.30733 (Simulation time: 0 hr 4 min 9 sec) 

Warmup complete CPU 0 instructions: 10000003 cycles: 4334014 (Simulation time: 0 hr 4 min 9 sec) 

Heartbeat CPU 0 instructions: 11000001 cycles: 4770214 heartbeat IPC: 2.29252 cumulative IPC: 2.29252 (Simulation time: 0 hr 4 min 32 sec) 
Heartbeat CPU 0 instructions: 12000000 cycles: 5205542 heartbeat IPC: 2.29712 cumulative IPC: 2.29482 (Simulation time: 0 hr 4 min 57 sec) 
Heartbeat CPU 0 instructions: 13000002 cycles: 5640784 heartbeat IPC: 2.29758 cumulative IPC: 2.29574 (Simulation time: 0 hr 5 min 23 sec) 
Heartbeat CPU 0 instructions: 14000000 cycles: 6436084 heartbeat IPC: 1.25738 cumulative IPC: 1.90288 (Simulation time: 0 hr 5 min 52 sec) 
Heartbeat CPU 0 instructions: 15000003 cycles: 6910646 heartbeat IPC: 2.10721 cumulative IPC: 1.94052 (Simulation time: 0 hr 6 min 17 sec) 
Heartbeat CPU 0 instructions: 16000000 cycles: 7355250 heartbeat IPC: 2.24919 cumulative IPC: 1.98594 (Simulation time: 0 hr 6 min 40 sec) 
Heartbeat CPU 0 instructions: 17000001 cycles: 7797535 heartbeat IPC: 2.26099 cumulative IPC: 2.02106 (Simulation time: 0 hr 7 min 4 sec) 
Heartbeat CPU 0 instructions: 18000001 cycles: 8235589 heartbeat IPC: 2.28282 cumulative IPC: 2.05045 (Simulation time: 0 hr 7 min 27 sec) 
Heartbeat CPU 0 instructions: 19000001 cycles: 8675172 heartbeat IPC: 2.27488 cumulative IPC: 2.07318 (Simulation time: 0 hr 7 min 50 sec) 
Heartbeat CPU 0 instructions: 20000000 cycles: 9196848 heartbeat IPC: 1.9169 cumulative IPC: 2.05641 (Simulation time: 0 hr 8 min 15 sec) 
Heartbeat CPU 0 instructions: 21000001 cycles: 9636094 heartbeat IPC: 2.27663 cumulative IPC: 2.07466 (Simulation time: 0 hr 8 min 42 sec) 
Heartbeat CPU 0 instructions: 22000000 cycles: 10076059 heartbeat IPC: 2.27291 cumulative IPC: 2.08985 (Simulation time: 0 hr 9 min 6 sec) 
Heartbeat CPU 0 instructions: 23000001 cycles: 10515509 heartbeat IPC: 2.27557 cumulative IPC: 2.10305 (Simulation time: 0 hr 9 min 30 sec) 
Heartbeat CPU 0 instructions: 24000000 cycles: 10955876 heartbeat IPC: 2.27083 cumulative IPC: 2.11421 (Simulation time: 0 hr 9 min 55 sec) 
Heartbeat CPU 0 instructions: 25000003 cycles: 11480849 heartbeat IPC: 1.90487 cumulative IPC: 2.09883 (Simulation time: 0 hr 10 min 19 sec) 
Heartbeat CPU 0 instructions: 26000003 cycles: 12028316 heartbeat IPC: 1.82659 cumulative IPC: 2.07946 (Simulation time: 0 hr 10 min 45 sec) 
Heartbeat CPU 0 instructions: 27000000 cycles: 12562746 heartbeat IPC: 1.87115 cumulative IPC: 2.06593 (Simulation time: 0 hr 11 min 11 sec) 
Heartbeat CPU 0 instructions: 28000000 cycles: 13207180 heartbeat IPC: 1.55175 cumulative IPC: 2.02859 (Simulation time: 0 hr 11 min 40 sec) 
Heartbeat CPU 0 instructions: 29000002 cycles: 13685036 heartbeat IPC: 2.09268 cumulative IPC: 2.03186 (Simulation time: 0 hr 12 min 3 sec) 
Heartbeat CPU 0 instructions: 30000001 cycles: 14238624 heartbeat IPC: 1.8064 cumulative IPC: 2.01926 (Simulation time: 0 hr 12 min 27 sec) 
Heartbeat CPU 0 instructions: 31000001 cycles: 14788816 heartbeat IPC: 1.81755 cumulative IPC: 2.00865 (Simulation time: 0 hr 12 min 50 sec) 
Heartbeat CPU 0 instructions: 32000000 cycles: 15521444 heartbeat IPC: 1.36495 cumulative IPC: 1.96649 (Simulation time: 0 hr 13 min 19 sec) 
Heartbeat CPU 0 instructions: 33000003 cycles: 16226052 heartbeat IPC: 1.41923 cumulative IPC: 1.93407 (Simulation time: 0 hr 13 min 53 sec) 
Heartbeat CPU 0 instructions: 34000000 cycles: 16925958 heartbeat IPC: 1.42876 cumulative IPC: 1.90598 (Simulation time: 0 hr 14 min 26 sec) 
Heartbeat CPU 0 instructions: 35000000 cycles: 17599157 heartbeat IPC: 1.48544 cumulative IPC: 1.88464 (Simulation time: 0 hr 14 min 56 sec) 
Heartbeat CPU 0 instructions: 36000000 cycles: 18240490 heartbeat IPC: 1.55925 cumulative IPC: 1.86963 (Simulation time: 0 hr 15 min 27 sec) 
Heartbeat CPU 0 instructions: 37000002 cycles: 18866307 heartbeat IPC: 1.59791 cumulative IPC: 1.85793 (Simulation time: 0 hr 16 min 5 sec) 
Heartbeat CPU 0 instructions: 38000003 cycles: 19501314 heartbeat IPC: 1.57479 cumulative IPC: 1.84608 (Simulation time: 0 hr 16 min 35 sec) 
Heartbeat CPU 0 instructions: 39000003 cycles: 20275751 heartbeat IPC: 1.29126 cumulative IPC: 1.81912 (Simulation time: 0 hr 17 min 3 sec) 
Heartbeat CPU 0 instructions: 40000000 cycles: 21116359 heartbeat IPC: 1.18961 cumulative IPC: 1.78759 (Simulation time: 0 hr 17 min 32 sec) 
Heartbeat CPU 0 instructions: 41000000 cycles: 22058084 heartbeat IPC: 1.06188 cumulative IPC: 1.74903 (Simulation time: 0 hr 18 min 1 sec) 
Heartbeat CPU 0 instructions: 42000001 cycles: 22660467 heartbeat IPC: 1.66008 cumulative IPC: 1.74611 (Simulation time: 0 hr 18 min 28 sec) 
Heartbeat CPU 0 instructions: 43000000 cycles: 23280916 heartbeat IPC: 1.61173 cumulative IPC: 1.74171 (Simulation time: 0 hr 18 min 54 sec) 
Heartbeat CPU 0 instructions: 44000000 cycles: 23957672 heartbeat IPC: 1.47764 cumulative IPC: 1.7326 (Simulation time: 0 hr 19 min 25 sec) 
Heartbeat CPU 0 instructions: 45000002 cycles: 24632081 heartbeat IPC: 1.48278 cumulative IPC: 1.7243 (Simulation time: 0 hr 19 min 53 sec) 
Heartbeat CPU 0 instructions: 46000002 cycles: 25361629 heartbeat IPC: 1.37071 cumulative IPC: 1.71203 (Simulation time: 0 hr 20 min 21 sec) 
Heartbeat CPU 0 instructions: 47000002 cycles: 26213477 heartbeat IPC: 1.17392 cumulative IPC: 1.69108 (Simulation time: 0 hr 20 min 46 sec) 
Heartbeat CPU 0 instructions: 48000000 cycles: 26666440 heartbeat IPC: 2.20768 cumulative IPC: 1.70156 (Simulation time: 0 hr 21 min 9 sec) 
Heartbeat CPU 0 instructions: 49000000 cycles: 27116976 heartbeat IPC: 2.21958 cumulative IPC: 1.71181 (Simulation time: 0 hr 21 min 32 sec) 
Heartbeat CPU 0 instructions: 50000000 cycles: 27593965 heartbeat IPC: 2.09648 cumulative IPC: 1.71969 (Simulation time: 0 hr 21 min 55 sec) 
Heartbeat CPU 0 instructions: 51000000 cycles: 28176408 heartbeat IPC: 1.71691 cumulative IPC: 1.71963 (Simulation time: 0 hr 22 min 24 sec) 
Heartbeat CPU 0 instructions: 52000000 cycles: 28763176 heartbeat IPC: 1.70425 cumulative IPC: 1.71926 (Simulation time: 0 hr 22 min 50 sec) 
Heartbeat CPU 0 instructions: 53000000 cycles: 29250163 heartbeat IPC: 2.05344 cumulative IPC: 1.72579 (Simulation time: 0 hr 23 min 15 sec) 
Heartbeat CPU 0 instructions: 54000003 cycles: 29723720 heartbeat IPC: 2.11168 cumulative IPC: 1.73299 (Simulation time: 0 hr 23 min 40 sec) 
Heartbeat CPU 0 instructions: 55000001 cycles: 30174693 heartbeat IPC: 2.21742 cumulative IPC: 1.74144 (Simulation time: 0 hr 24 min 4 sec) 
Heartbeat CPU 0 instructions: 56000000 cycles: 30619175 heartbeat IPC: 2.24981 cumulative IPC: 1.75004 (Simulation time: 0 hr 24 min 30 sec) 
Heartbeat CPU 0 instructions: 57000003 cycles: 31062335 heartbeat IPC: 2.25653 cumulative IPC: 1.75843 (Simulation time: 0 hr 24 min 55 sec) 
Heartbeat CPU 0 instructions: 58000002 cycles: 31517678 heartbeat IPC: 2.19614 cumulative IPC: 1.76577 (Simulation time: 0 hr 25 min 19 sec) 
Heartbeat CPU 0 instructions: 59000001 cycles: 32078068 heartbeat IPC: 1.78447 cumulative IPC: 1.76614 (Simulation time: 0 hr 25 min 45 sec) 
Heartbeat CPU 0 instructions: 60000000 cycles: 32544442 heartbeat IPC: 2.1442 cumulative IPC: 1.77239 (Simulation time: 0 hr 26 min 11 sec) 
Heartbeat CPU 0 instructions: 61000003 cycles: 33011625 heartbeat IPC: 2.1405 cumulative IPC: 1.77839 (Simulation time: 0 hr 26 min 35 sec) 
Heartbeat CPU 0 instructions: 62000002 cycles: 33474846 heartbeat IPC: 2.15879 cumulative IPC: 1.78444 (Simulation time: 0 hr 26 min 58 sec) 
Heartbeat CPU 0 instructions: 63000003 cycles: 33937477 heartbeat IPC: 2.16155 cumulative IPC: 1.79033 (Simulation time: 0 hr 27 min 22 sec) 
Heartbeat CPU 0 instructions: 64000000 cycles: 34394385 heartbeat IPC: 2.18862 cumulative IPC: 1.79638 (Simulation time: 0 hr 27 min 47 sec) 
Heartbeat CPU 0 instructions: 65000000 cycles: 35039307 heartbeat IPC: 1.55058 cumulative IPC: 1.79122 (Simulation time: 0 hr 28 min 17 sec) 
Heartbeat CPU 0 instructions: 66000002 cycles: 35602372 heartbeat IPC: 1.776 cumulative IPC: 1.79095 (Simulation time: 0 hr 28 min 44 sec) 
Heartbeat CPU 0 instructions: 67000002 cycles: 36064622 heartbeat IPC: 2.16333 cumulative IPC: 1.79637 (Simulation time: 0 hr 29 min 10 sec) 
Heartbeat CPU 0 instructions: 68000000 cycles: 36512560 heartbeat IPC: 2.23245 cumulative IPC: 1.80244 (Simulation time: 0 hr 29 min 38 sec) 
Heartbeat CPU 0 instructions: 69000001 cycles: 37046024 heartbeat IPC: 1.87454 cumulative IPC: 1.80362 (Simulation time: 0 hr 30 min 4 sec) 
Heartbeat CPU 0 instructions: 70000000 cycles: 37533096 heartbeat IPC: 2.05308 cumulative IPC: 1.80728 (Simulation time: 0 hr 30 min 29 sec) 
Heartbeat CPU 0 instructions: 71000000 cycles: 38015624 heartbeat IPC: 2.07242 cumulative IPC: 1.81108 (Simulation time: 0 hr 30 min 54 sec) 
Heartbeat CPU 0 instructions: 72000000 cycles: 38516686 heartbeat IPC: 1.99576 cumulative IPC: 1.81378 (Simulation time: 0 hr 31 min 18 sec) 
Heartbeat CPU 0 instructions: 73000001 cycles: 39067080 heartbeat IPC: 1.81688 cumulative IPC: 1.81383 (Simulation time: 0 hr 31 min 48 sec) 
Heartbeat CPU 0 instructions: 74000002 cycles: 39689049 heartbeat IPC: 1.6078 cumulative IPC: 1.81021 (Simulation time: 0 hr 32 min 13 sec) 
Heartbeat CPU 0 instructions: 75000000 cycles: 40232028 heartbeat IPC: 1.84169 cumulative IPC: 1.81069 (Simulation time: 0 hr 32 min 36 sec) 
Heartbeat CPU 0 instructions: 76000000 cycles: 40969350 heartbeat IPC: 1.35626 cumulative IPC: 1.80154 (Simulation time: 0 hr 33 min 5 sec) 
Heartbeat CPU 0 instructions: 77000000 cycles: 41690313 heartbeat IPC: 1.38703 cumulative IPC: 1.79354 (Simulation time: 0 hr 33 min 37 sec) 
Heartbeat CPU 0 instructions: 78000003 cycles: 42408894 heartbeat IPC: 1.39164 cumulative IPC: 1.78595 (Simulation time: 0 hr 34 min 8 sec) 
Heartbeat CPU 0 instructions: 79000000 cycles: 43119795 heartbeat IPC: 1.40666 cumulative IPC: 1.779 (Simulation time: 0 hr 34 min 40 sec) 
Heartbeat CPU 0 instructions: 80000000 cycles: 43804877 heartbeat IPC: 1.45968 cumulative IPC: 1.77346 (Simulation time: 0 hr 35 min 9 sec) 
Heartbeat CPU 0 instructions: 81000001 cycles: 44469209 heartbeat IPC: 1.50527 cumulative IPC: 1.76902 (Simulation time: 0 hr 35 min 38 sec) 
Heartbeat CPU 0 instructions: 82000002 cycles: 45112167 heartbeat IPC: 1.55531 cumulative IPC: 1.76565 (Simulation time: 0 hr 36 min 7 sec) 
Heartbeat CPU 0 instructions: 83000002 cycles: 45918162 heartbeat IPC: 1.2407 cumulative IPC: 1.75548 (Simulation time: 0 hr 36 min 34 sec) 
Heartbeat CPU 0 instructions: 84000000 cycles: 46505911 heartbeat IPC: 1.7014 cumulative IPC: 1.75472 (Simulation time: 0 hr 37 min 0 sec) 
Heartbeat CPU 0 instructions: 85000000 cycles: 46960636 heartbeat IPC: 2.19913 cumulative IPC: 1.75946 (Simulation time: 0 hr 37 min 25 sec) 
Heartbeat CPU 0 instructions: 86000001 cycles: 47413028 heartbeat IPC: 2.21047 cumulative IPC: 1.7642 (Simulation time: 0 hr 37 min 50 sec) 
Heartbeat CPU 0 instructions: 87000002 cycles: 47868649 heartbeat IPC: 2.19481 cumulative IPC: 1.76871 (Simulation time: 0 hr 38 min 13 sec) 
Heartbeat CPU 0 instructions: 88000000 cycles: 48319678 heartbeat IPC: 2.21715 cumulative IPC: 1.7733 (Simulation time: 0 hr 38 min 38 sec) 
Heartbeat CPU 0 instructions: 89000003 cycles: 48769223 heartbeat IPC: 2.22448 cumulative IPC: 1.77787 (Simulation time: 0 hr 39 min 4 sec) 
Heartbeat CPU 0 instructions: 90000003 cycles: 49219196 heartbeat IPC: 2.22236 cumulative IPC: 1.78233 (Simulation time: 0 hr 39 min 31 sec) 
Heartbeat CPU 0 instructions: 91000003 cycles: 49680650 heartbeat IPC: 2.16706 cumulative IPC: 1.78624 (Simulation time: 0 hr 39 min 55 sec) 
Heartbeat CPU 0 instructions: 92000000 cycles: 50147349 heartbeat IPC: 2.1427 cumulative IPC: 1.78987 (Simulation time: 0 hr 40 min 20 sec) 
Heartbeat CPU 0 instructions: 93000000 cycles: 50594334 heartbeat IPC: 2.23721 cumulative IPC: 1.79419 (Simulation time: 0 hr 40 min 43 sec) 
Heartbeat CPU 0 instructions: 94000003 cycles: 51040271 heartbeat IPC: 2.24248 cumulative IPC: 1.79847 (Simulation time: 0 hr 41 min 8 sec) 
Heartbeat CPU 0 instructions: 95000002 cycles: 51646820 heartbeat IPC: 1.64867 cumulative IPC: 1.79655 (Simulation time: 0 hr 41 min 34 sec) 
Heartbeat CPU 0 instructions: 96000000 cycles: 52218497 heartbeat IPC: 1.74924 cumulative IPC: 1.79599 (Simulation time: 0 hr 42 min 0 sec) 
Heartbeat CPU 0 instructions: 97000000 cycles: 52709212 heartbeat IPC: 2.03784 cumulative IPC: 1.79844 (Simulation time: 0 hr 42 min 24 sec) 
Heartbeat CPU 0 instructions: 98000003 cycles: 53192783 heartbeat IPC: 2.06795 cumulative IPC: 1.80111 (Simulation time: 0 hr 42 min 47 sec) 
Heartbeat CPU 0 instructions: 99000000 cycles: 53657488 heartbeat IPC: 2.1519 cumulative IPC: 1.80441 (Simulation time: 0 hr 43 min 8 sec) 
Heartbeat CPU 0 instructions: 100000000 cycles: 54122152 heartbeat IPC: 2.15209 cumulative IPC: 1.80766 (Simulation time: 0 hr 43 min 32 sec) 
Heartbeat CPU 0 instructions: 101000003 cycles: 54575821 heartbeat IPC: 2.20426 cumulative IPC: 1.81124 (Simulation time: 0 hr 43 min 55 sec) 
Heartbeat CPU 0 instructions: 102000002 cycles: 55091873 heartbeat IPC: 1.93779 cumulative IPC: 1.81253 (Simulation time: 0 hr 44 min 19 sec) 
Heartbeat CPU 0 instructions: 103000000 cycles: 55603682 heartbeat IPC: 1.95385 cumulative IPC: 1.81394 (Simulation time: 0 hr 44 min 44 sec) 
Heartbeat CPU 0 instructions: 104000000 cycles: 56106278 heartbeat IPC: 1.98967 cumulative IPC: 1.81564 (Simulation time: 0 hr 45 min 9 sec) 
Heartbeat CPU 0 instructions: 105000000 cycles: 56614561 heartbeat IPC: 1.96741 cumulative IPC: 1.81712 (Simulation time: 0 hr 45 min 34 sec) 
Heartbeat CPU 0 instructions: 106000003 cycles: 57121823 heartbeat IPC: 1.97137 cumulative IPC: 1.8186 (Simulation time: 0 hr 46 min 3 sec) 
Heartbeat CPU 0 instructions: 107000001 cycles: 57623773 heartbeat IPC: 1.99223 cumulative IPC: 1.82024 (Simulation time: 0 hr 46 min 28 sec) 
Heartbeat CPU 0 instructions: 108000000 cycles: 58192218 heartbeat IPC: 1.75918 cumulative IPC: 1.81959 (Simulation time: 0 hr 46 min 53 sec) 
Heartbeat CPU 0 instructions: 109000002 cycles: 58847795 heartbeat IPC: 1.52538 cumulative IPC: 1.81605 (Simulation time: 0 hr 47 min 22 sec) 
Heartbeat CPU 0 instructions: 110000003 cycles: 59314352 heartbeat IPC: 2.14336 cumulative IPC: 1.81883 (Simulation time: 0 hr 47 min 46 sec) 
Finished CPU 0 instructions: 100000000 cycles: 54980338 cummulative IPC: 1.81883 (Simulation time: 0 hr 47 min 46 sec) 

ChampSim completed all CPUs

Region of Interest Statistics

CPU 0 cummulative IPC: 1.81883 instructions: 100000000 cycles: 54980338
LLC TOTAL     ACCESS:    1161479  HIT:    1047360  MISS:     114119
LLC LOAD      ACCESS:     133680  HIT:     126869  MISS:       6811
LLC RFO       ACCESS:      47550  HIT:      17488  MISS:      30062
LLC PREFETCH  ACCESS:     680427  HIT:     608938  MISS:      71489
LLC WRITEBACK ACCESS:     299822  HIT:     294065  MISS:       5757
Insertion Distribution: 
	LOAD 2279 0 4788 521 
	RFO 9342 0 21725 5051 
	PREF 0 10902 24900 43048 
	WRITEBACK 0 0 0 6461 
Total Prefetch Downgrades: 8175
