
*** ChampSim Multicore Out-of-Order Simulator ***

Warmup Instructions: 10000000
Simulation Instructions: 100000000
Configuration: 2
Number of CPUs: 1
LLC sets: 2048
LLC ways: 16
Off-chip DRAM Channels: 1 Width: 64-bit Data Rate: 1600 MT/s

CPU 0 runs /datasets/cs240c-wi22-a00-public/data/Assignment2-gz/mcf_250B.trace.gz
CPU 0 L1D next line prefetcher
CPU 0 L2C IP-based stride prefetcher
Initialize SRRIP state
Heartbeat CPU 0 instructions: 1000000 cycles: 531816 heartbeat IPC: 1.88035 cumulative IPC: 1.88035 (Simulation time: 0 hr 0 min 39 sec) 
Heartbeat CPU 0 instructions: 2000003 cycles: 1043891 heartbeat IPC: 1.95284 cumulative IPC: 1.91591 (Simulation time: 0 hr 1 min 19 sec) 
Heartbeat CPU 0 instructions: 3000002 cycles: 1539579 heartbeat IPC: 2.0174 cumulative IPC: 1.94859 (Simulation time: 0 hr 1 min 57 sec) 
Heartbeat CPU 0 instructions: 4000000 cycles: 2049624 heartbeat IPC: 1.96061 cumulative IPC: 1.95158 (Simulation time: 0 hr 2 min 40 sec) 
Heartbeat CPU 0 instructions: 5000002 cycles: 2554594 heartbeat IPC: 1.98032 cumulative IPC: 1.95726 (Simulation time: 0 hr 3 min 20 sec) 
Heartbeat CPU 0 instructions: 6000002 cycles: 3058446 heartbeat IPC: 1.98471 cumulative IPC: 1.96178 (Simulation time: 0 hr 3 min 58 sec) 
Heartbeat CPU 0 instructions: 7000002 cycles: 3596935 heartbeat IPC: 1.85705 cumulative IPC: 1.9461 (Simulation time: 0 hr 4 min 33 sec) 
Heartbeat CPU 0 instructions: 8000000 cycles: 4110268 heartbeat IPC: 1.94805 cumulative IPC: 1.94635 (Simulation time: 0 hr 5 min 10 sec) 
Heartbeat CPU 0 instructions: 9000002 cycles: 4623164 heartbeat IPC: 1.94972 cumulative IPC: 1.94672 (Simulation time: 0 hr 5 min 49 sec) 
Heartbeat CPU 0 instructions: 10000000 cycles: 5133029 heartbeat IPC: 1.9613 cumulative IPC: 1.94817 (Simulation time: 0 hr 6 min 32 sec) 

Warmup complete CPU 0 instructions: 10000003 cycles: 5133030 (Simulation time: 0 hr 6 min 32 sec) 

Heartbeat CPU 0 instructions: 11000001 cycles: 12688116 heartbeat IPC: 0.132361 cumulative IPC: 0.132361 (Simulation time: 0 hr 7 min 22 sec) 
Heartbeat CPU 0 instructions: 12000000 cycles: 25361583 heartbeat IPC: 0.0789049 cumulative IPC: 0.09887 (Simulation time: 0 hr 8 min 25 sec) 
Heartbeat CPU 0 instructions: 13000001 cycles: 36666853 heartbeat IPC: 0.0884544 cumulative IPC: 0.0951359 (Simulation time: 0 hr 9 min 30 sec) 
Heartbeat CPU 0 instructions: 14000003 cycles: 44940802 heartbeat IPC: 0.120862 cumulative IPC: 0.100483 (Simulation time: 0 hr 10 min 26 sec) 
Heartbeat CPU 0 instructions: 15000002 cycles: 52561249 heartbeat IPC: 0.131226 cumulative IPC: 0.105422 (Simulation time: 0 hr 11 min 17 sec) 
Heartbeat CPU 0 instructions: 16000000 cycles: 59945919 heartbeat IPC: 0.135415 cumulative IPC: 0.109463 (Simulation time: 0 hr 12 min 7 sec) 
Heartbeat CPU 0 instructions: 17000000 cycles: 67526720 heartbeat IPC: 0.131912 cumulative IPC: 0.112191 (Simulation time: 0 hr 13 min 1 sec) 
Heartbeat CPU 0 instructions: 18000002 cycles: 75359190 heartbeat IPC: 0.127674 cumulative IPC: 0.113918 (Simulation time: 0 hr 13 min 55 sec) 
Heartbeat CPU 0 instructions: 19000000 cycles: 83061856 heartbeat IPC: 0.129825 cumulative IPC: 0.11549 (Simulation time: 0 hr 14 min 46 sec) 
Heartbeat CPU 0 instructions: 20000000 cycles: 90800214 heartbeat IPC: 0.129226 cumulative IPC: 0.116731 (Simulation time: 0 hr 15 min 43 sec) 
Heartbeat CPU 0 instructions: 21000000 cycles: 98127310 heartbeat IPC: 0.13648 cumulative IPC: 0.118287 (Simulation time: 0 hr 16 min 36 sec) 
Heartbeat CPU 0 instructions: 22000000 cycles: 105227402 heartbeat IPC: 0.140843 cumulative IPC: 0.119887 (Simulation time: 0 hr 17 min 26 sec) 
Heartbeat CPU 0 instructions: 23000003 cycles: 112802211 heartbeat IPC: 0.132017 cumulative IPC: 0.12074 (Simulation time: 0 hr 18 min 24 sec) 
Heartbeat CPU 0 instructions: 24000000 cycles: 120368685 heartbeat IPC: 0.132162 cumulative IPC: 0.12149 (Simulation time: 0 hr 19 min 16 sec) 
Heartbeat CPU 0 instructions: 25000002 cycles: 128092569 heartbeat IPC: 0.129469 cumulative IPC: 0.121991 (Simulation time: 0 hr 20 min 5 sec) 
Heartbeat CPU 0 instructions: 26000000 cycles: 136238339 heartbeat IPC: 0.122763 cumulative IPC: 0.122039 (Simulation time: 0 hr 20 min 58 sec) 
Heartbeat CPU 0 instructions: 27000003 cycles: 144502897 heartbeat IPC: 0.120999 cumulative IPC: 0.121978 (Simulation time: 0 hr 21 min 51 sec) 
Heartbeat CPU 0 instructions: 28000000 cycles: 152430715 heartbeat IPC: 0.126138 cumulative IPC: 0.122201 (Simulation time: 0 hr 22 min 43 sec) 
Heartbeat CPU 0 instructions: 29000000 cycles: 160878679 heartbeat IPC: 0.118372 cumulative IPC: 0.121994 (Simulation time: 0 hr 23 min 35 sec) 
Heartbeat CPU 0 instructions: 30000000 cycles: 169154604 heartbeat IPC: 0.120832 cumulative IPC: 0.121935 (Simulation time: 0 hr 24 min 30 sec) 
Heartbeat CPU 0 instructions: 31000000 cycles: 176917231 heartbeat IPC: 0.128822 cumulative IPC: 0.122246 (Simulation time: 0 hr 25 min 22 sec) 
Heartbeat CPU 0 instructions: 32000000 cycles: 184359048 heartbeat IPC: 0.134376 cumulative IPC: 0.12275 (Simulation time: 0 hr 26 min 13 sec) 
Heartbeat CPU 0 instructions: 33000000 cycles: 192579561 heartbeat IPC: 0.121647 cumulative IPC: 0.122702 (Simulation time: 0 hr 27 min 7 sec) 
Heartbeat CPU 0 instructions: 34000000 cycles: 200727967 heartbeat IPC: 0.122723 cumulative IPC: 0.122703 (Simulation time: 0 hr 27 min 59 sec) 
Heartbeat CPU 0 instructions: 35000000 cycles: 211336978 heartbeat IPC: 0.0942595 cumulative IPC: 0.121239 (Simulation time: 0 hr 28 min 59 sec) 
Heartbeat CPU 0 instructions: 36000000 cycles: 224627514 heartbeat IPC: 0.0752415 cumulative IPC: 0.118454 (Simulation time: 0 hr 30 min 13 sec) 
Heartbeat CPU 0 instructions: 37000002 cycles: 233208277 heartbeat IPC: 0.11654 cumulative IPC: 0.118382 (Simulation time: 0 hr 31 min 11 sec) 
Heartbeat CPU 0 instructions: 38000000 cycles: 241173858 heartbeat IPC: 0.12554 cumulative IPC: 0.118624 (Simulation time: 0 hr 32 min 9 sec) 
Heartbeat CPU 0 instructions: 39000000 cycles: 248810586 heartbeat IPC: 0.130946 cumulative IPC: 0.11901 (Simulation time: 0 hr 33 min 3 sec) 
Heartbeat CPU 0 instructions: 40000000 cycles: 257042565 heartbeat IPC: 0.121477 cumulative IPC: 0.11909 (Simulation time: 0 hr 34 min 0 sec) 
Heartbeat CPU 0 instructions: 41000000 cycles: 264701130 heartbeat IPC: 0.130573 cumulative IPC: 0.119429 (Simulation time: 0 hr 34 min 56 sec) 
Heartbeat CPU 0 instructions: 42000000 cycles: 273106042 heartbeat IPC: 0.118978 cumulative IPC: 0.119415 (Simulation time: 0 hr 35 min 52 sec) 
Heartbeat CPU 0 instructions: 43000000 cycles: 281200533 heartbeat IPC: 0.123541 cumulative IPC: 0.119536 (Simulation time: 0 hr 36 min 45 sec) 
Heartbeat CPU 0 instructions: 44000000 cycles: 289298818 heartbeat IPC: 0.123483 cumulative IPC: 0.119648 (Simulation time: 0 hr 37 min 43 sec) 
Heartbeat CPU 0 instructions: 45000001 cycles: 297201688 heartbeat IPC: 0.126536 cumulative IPC: 0.119835 (Simulation time: 0 hr 38 min 39 sec) 
Heartbeat CPU 0 instructions: 46000000 cycles: 305091477 heartbeat IPC: 0.126746 cumulative IPC: 0.120017 (Simulation time: 0 hr 39 min 39 sec) 
Heartbeat CPU 0 instructions: 47000002 cycles: 312945525 heartbeat IPC: 0.127323 cumulative IPC: 0.120203 (Simulation time: 0 hr 40 min 32 sec) 
Heartbeat CPU 0 instructions: 48000000 cycles: 320390321 heartbeat IPC: 0.134322 cumulative IPC: 0.120536 (Simulation time: 0 hr 41 min 25 sec) 
Heartbeat CPU 0 instructions: 49000000 cycles: 328182355 heartbeat IPC: 0.128336 cumulative IPC: 0.120725 (Simulation time: 0 hr 42 min 24 sec) 
Heartbeat CPU 0 instructions: 50000002 cycles: 336025885 heartbeat IPC: 0.127494 cumulative IPC: 0.120885 (Simulation time: 0 hr 43 min 22 sec) 
Heartbeat CPU 0 instructions: 51000002 cycles: 343936226 heartbeat IPC: 0.126417 cumulative IPC: 0.121014 (Simulation time: 0 hr 44 min 21 sec) 
Heartbeat CPU 0 instructions: 52000000 cycles: 351886328 heartbeat IPC: 0.125784 cumulative IPC: 0.121124 (Simulation time: 0 hr 45 min 13 sec) 
Heartbeat CPU 0 instructions: 53000000 cycles: 359773842 heartbeat IPC: 0.126783 cumulative IPC: 0.121249 (Simulation time: 0 hr 46 min 8 sec) 
Heartbeat CPU 0 instructions: 54000000 cycles: 367486401 heartbeat IPC: 0.129659 cumulative IPC: 0.121428 (Simulation time: 0 hr 47 min 6 sec) 
Heartbeat CPU 0 instructions: 55000000 cycles: 375328532 heartbeat IPC: 0.127516 cumulative IPC: 0.121557 (Simulation time: 0 hr 47 min 59 sec) 
Heartbeat CPU 0 instructions: 56000000 cycles: 383136197 heartbeat IPC: 0.128079 cumulative IPC: 0.121692 (Simulation time: 0 hr 48 min 48 sec) 
Heartbeat CPU 0 instructions: 57000000 cycles: 390924862 heartbeat IPC: 0.128392 cumulative IPC: 0.121827 (Simulation time: 0 hr 49 min 38 sec) 
Heartbeat CPU 0 instructions: 58000000 cycles: 398752899 heartbeat IPC: 0.127746 cumulative IPC: 0.121945 (Simulation time: 0 hr 50 min 26 sec) 
Heartbeat CPU 0 instructions: 59000001 cycles: 406314797 heartbeat IPC: 0.132242 cumulative IPC: 0.122139 (Simulation time: 0 hr 51 min 13 sec) 
Heartbeat CPU 0 instructions: 60000000 cycles: 413845092 heartbeat IPC: 0.132797 cumulative IPC: 0.122336 (Simulation time: 0 hr 52 min 0 sec) 
Heartbeat CPU 0 instructions: 61000001 cycles: 421479785 heartbeat IPC: 0.130981 cumulative IPC: 0.122494 (Simulation time: 0 hr 52 min 50 sec) 
Heartbeat CPU 0 instructions: 62000000 cycles: 428010364 heartbeat IPC: 0.153126 cumulative IPC: 0.122967 (Simulation time: 0 hr 53 min 30 sec) 
Heartbeat CPU 0 instructions: 63000001 cycles: 435766108 heartbeat IPC: 0.128937 cumulative IPC: 0.123075 (Simulation time: 0 hr 54 min 8 sec) 
Heartbeat CPU 0 instructions: 64000000 cycles: 443322463 heartbeat IPC: 0.132339 cumulative IPC: 0.123234 (Simulation time: 0 hr 54 min 45 sec) 
Heartbeat CPU 0 instructions: 65000000 cycles: 450529229 heartbeat IPC: 0.138758 cumulative IPC: 0.123486 (Simulation time: 0 hr 55 min 18 sec) 
Heartbeat CPU 0 instructions: 66000000 cycles: 458296681 heartbeat IPC: 0.128742 cumulative IPC: 0.123576 (Simulation time: 0 hr 55 min 55 sec) 
Heartbeat CPU 0 instructions: 67000000 cycles: 466365911 heartbeat IPC: 0.123928 cumulative IPC: 0.123582 (Simulation time: 0 hr 56 min 30 sec) 
Heartbeat CPU 0 instructions: 68000000 cycles: 473919108 heartbeat IPC: 0.132394 cumulative IPC: 0.123724 (Simulation time: 0 hr 57 min 3 sec) 
Heartbeat CPU 0 instructions: 69000000 cycles: 481504747 heartbeat IPC: 0.131828 cumulative IPC: 0.123853 (Simulation time: 0 hr 57 min 35 sec) 
Heartbeat CPU 0 instructions: 70000000 cycles: 489262082 heartbeat IPC: 0.12891 cumulative IPC: 0.123934 (Simulation time: 0 hr 58 min 8 sec) 
Heartbeat CPU 0 instructions: 71000000 cycles: 496766596 heartbeat IPC: 0.133253 cumulative IPC: 0.124076 (Simulation time: 0 hr 58 min 38 sec) 
Heartbeat CPU 0 instructions: 72000000 cycles: 504897163 heartbeat IPC: 0.122993 cumulative IPC: 0.124059 (Simulation time: 0 hr 59 min 8 sec) 
Heartbeat CPU 0 instructions: 73000000 cycles: 512551312 heartbeat IPC: 0.130648 cumulative IPC: 0.124158 (Simulation time: 0 hr 59 min 36 sec) 
Heartbeat CPU 0 instructions: 74000001 cycles: 520200407 heartbeat IPC: 0.130735 cumulative IPC: 0.124256 (Simulation time: 1 hr 0 min 3 sec) 
Heartbeat CPU 0 instructions: 75000002 cycles: 527852564 heartbeat IPC: 0.130682 cumulative IPC: 0.12435 (Simulation time: 1 hr 0 min 28 sec) 
Heartbeat CPU 0 instructions: 76000000 cycles: 535352746 heartbeat IPC: 0.13333 cumulative IPC: 0.124477 (Simulation time: 1 hr 0 min 53 sec) 
Heartbeat CPU 0 instructions: 77000003 cycles: 549765980 heartbeat IPC: 0.0693809 cumulative IPC: 0.123019 (Simulation time: 1 hr 1 min 22 sec) 
Heartbeat CPU 0 instructions: 78000000 cycles: 559238895 heartbeat IPC: 0.105564 cumulative IPC: 0.12272 (Simulation time: 1 hr 1 min 43 sec) 
Heartbeat CPU 0 instructions: 79000000 cycles: 566737000 heartbeat IPC: 0.133367 cumulative IPC: 0.122862 (Simulation time: 1 hr 2 min 3 sec) 
Heartbeat CPU 0 instructions: 80000000 cycles: 574509011 heartbeat IPC: 0.128667 cumulative IPC: 0.122942 (Simulation time: 1 hr 2 min 22 sec) 
Heartbeat CPU 0 instructions: 81000001 cycles: 582199085 heartbeat IPC: 0.130038 cumulative IPC: 0.123036 (Simulation time: 1 hr 2 min 40 sec) 
Heartbeat CPU 0 instructions: 82000001 cycles: 588839559 heartbeat IPC: 0.150592 cumulative IPC: 0.12335 (Simulation time: 1 hr 2 min 57 sec) 
Heartbeat CPU 0 instructions: 83000002 cycles: 595236566 heartbeat IPC: 0.156323 cumulative IPC: 0.123707 (Simulation time: 1 hr 3 min 12 sec) 
Heartbeat CPU 0 instructions: 84000000 cycles: 601495503 heartbeat IPC: 0.159771 cumulative IPC: 0.124086 (Simulation time: 1 hr 3 min 24 sec) 
Heartbeat CPU 0 instructions: 85000000 cycles: 608125314 heartbeat IPC: 0.150834 cumulative IPC: 0.12438 (Simulation time: 1 hr 3 min 36 sec) 
Heartbeat CPU 0 instructions: 86000001 cycles: 614663347 heartbeat IPC: 0.152951 cumulative IPC: 0.124686 (Simulation time: 1 hr 3 min 46 sec) 
Heartbeat CPU 0 instructions: 87000001 cycles: 627875564 heartbeat IPC: 0.0756875 cumulative IPC: 0.123647 (Simulation time: 1 hr 4 min 1 sec) 
Heartbeat CPU 0 instructions: 88000000 cycles: 637277882 heartbeat IPC: 0.106357 cumulative IPC: 0.123389 (Simulation time: 1 hr 4 min 12 sec) 
Heartbeat CPU 0 instructions: 89000001 cycles: 644259560 heartbeat IPC: 0.143232 cumulative IPC: 0.123606 (Simulation time: 1 hr 4 min 22 sec) 
Heartbeat CPU 0 instructions: 90000001 cycles: 650209033 heartbeat IPC: 0.168082 cumulative IPC: 0.124016 (Simulation time: 1 hr 4 min 30 sec) 
Heartbeat CPU 0 instructions: 91000000 cycles: 659449384 heartbeat IPC: 0.108221 cumulative IPC: 0.123793 (Simulation time: 1 hr 4 min 38 sec) 
Heartbeat CPU 0 instructions: 92000000 cycles: 666533253 heartbeat IPC: 0.141166 cumulative IPC: 0.123979 (Simulation time: 1 hr 4 min 45 sec) 
Heartbeat CPU 0 instructions: 93000000 cycles: 674324351 heartbeat IPC: 0.128352 cumulative IPC: 0.12403 (Simulation time: 1 hr 4 min 52 sec) 
Heartbeat CPU 0 instructions: 94000000 cycles: 682654846 heartbeat IPC: 0.120041 cumulative IPC: 0.123981 (Simulation time: 1 hr 5 min 0 sec) 
Heartbeat CPU 0 instructions: 95000000 cycles: 690572441 heartbeat IPC: 0.126301 cumulative IPC: 0.124008 (Simulation time: 1 hr 5 min 7 sec) 
Heartbeat CPU 0 instructions: 96000000 cycles: 698736544 heartbeat IPC: 0.122487 cumulative IPC: 0.12399 (Simulation time: 1 hr 5 min 14 sec) 
Heartbeat CPU 0 instructions: 97000000 cycles: 706611511 heartbeat IPC: 0.126985 cumulative IPC: 0.124024 (Simulation time: 1 hr 5 min 21 sec) 
Heartbeat CPU 0 instructions: 98000000 cycles: 714321315 heartbeat IPC: 0.129705 cumulative IPC: 0.124086 (Simulation time: 1 hr 5 min 28 sec) 
Heartbeat CPU 0 instructions: 99000000 cycles: 721980651 heartbeat IPC: 0.13056 cumulative IPC: 0.124155 (Simulation time: 1 hr 5 min 35 sec) 
Heartbeat CPU 0 instructions: 100000000 cycles: 729714331 heartbeat IPC: 0.129305 cumulative IPC: 0.12421 (Simulation time: 1 hr 5 min 42 sec) 
Heartbeat CPU 0 instructions: 101000002 cycles: 737691441 heartbeat IPC: 0.125359 cumulative IPC: 0.124222 (Simulation time: 1 hr 5 min 50 sec) 
Heartbeat CPU 0 instructions: 102000002 cycles: 745999478 heartbeat IPC: 0.120365 cumulative IPC: 0.124179 (Simulation time: 1 hr 5 min 57 sec) 
Heartbeat CPU 0 instructions: 103000000 cycles: 754109555 heartbeat IPC: 0.123303 cumulative IPC: 0.124169 (Simulation time: 1 hr 6 min 3 sec) 
Heartbeat CPU 0 instructions: 104000000 cycles: 762072861 heartbeat IPC: 0.125576 cumulative IPC: 0.124184 (Simulation time: 1 hr 6 min 9 sec) 
Heartbeat CPU 0 instructions: 105000000 cycles: 769815687 heartbeat IPC: 0.129152 cumulative IPC: 0.124235 (Simulation time: 1 hr 6 min 14 sec) 
Heartbeat CPU 0 instructions: 106000003 cycles: 777786525 heartbeat IPC: 0.125458 cumulative IPC: 0.124247 (Simulation time: 1 hr 6 min 21 sec) 
Heartbeat CPU 0 instructions: 107000003 cycles: 785671451 heartbeat IPC: 0.126824 cumulative IPC: 0.124273 (Simulation time: 1 hr 6 min 28 sec) 
Heartbeat CPU 0 instructions: 108000000 cycles: 793410023 heartbeat IPC: 0.129222 cumulative IPC: 0.124322 (Simulation time: 1 hr 6 min 35 sec) 
Heartbeat CPU 0 instructions: 109000000 cycles: 801395418 heartbeat IPC: 0.125229 cumulative IPC: 0.124331 (Simulation time: 1 hr 6 min 43 sec) 
Heartbeat CPU 0 instructions: 110000000 cycles: 809203493 heartbeat IPC: 0.128073 cumulative IPC: 0.124367 (Simulation time: 1 hr 6 min 50 sec) 
Finished CPU 0 instructions: 100000000 cycles: 804070465 cummulative IPC: 0.124367 (Simulation time: 1 hr 6 min 50 sec) 

ChampSim completed all CPUs

Region of Interest Statistics

CPU 0 cummulative IPC: 0.124367 instructions: 100000000 cycles: 804070465
LLC TOTAL     ACCESS:   26953392  HIT:   13317297  MISS:   13636095
LLC LOAD      ACCESS:   11715598  HIT:    9908531  MISS:    1807067
LLC RFO       ACCESS:      27353  HIT:      10158  MISS:      17195
LLC PREFETCH  ACCESS:   14876716  HIT:    3137151  MISS:   11739565
LLC WRITEBACK ACCESS:     333725  HIT:     261457  MISS:      72268
Insertion Distribution: 
	LOAD 554756 0 376555 1094445 
	RFO 12125 0 6896 2636 
	PREF 0 1022316 3814449 8024640 
	WRITEBACK 0 0 0 112166 
Total Prefetch Downgrades: 1985436
