
*** ChampSim Multicore Out-of-Order Simulator ***

Warmup Instructions: 10000000
Simulation Instructions: 100000000
Configuration: 2
Number of CPUs: 1
LLC sets: 2048
LLC ways: 16
Off-chip DRAM Channels: 1 Width: 64-bit Data Rate: 1600 MT/s

CPU 0 runs /datasets/cs240c-wi22-a00-public/data/Assignment2-gz/mcf_158B.trace.gz
CPU 0 L1D next line prefetcher
CPU 0 L2C IP-based stride prefetcher
Initialize SRRIP state
Heartbeat CPU 0 instructions: 1000002 cycles: 512221 heartbeat IPC: 1.95229 cumulative IPC: 1.95229 (Simulation time: 0 hr 0 min 41 sec) 
Heartbeat CPU 0 instructions: 2000002 cycles: 1023003 heartbeat IPC: 1.95778 cumulative IPC: 1.95503 (Simulation time: 0 hr 1 min 22 sec) 
Heartbeat CPU 0 instructions: 3000000 cycles: 1535143 heartbeat IPC: 1.95259 cumulative IPC: 1.95422 (Simulation time: 0 hr 2 min 2 sec) 
Heartbeat CPU 0 instructions: 4000000 cycles: 2046141 heartbeat IPC: 1.95695 cumulative IPC: 1.9549 (Simulation time: 0 hr 2 min 42 sec) 
Heartbeat CPU 0 instructions: 5000002 cycles: 2553600 heartbeat IPC: 1.97061 cumulative IPC: 1.95802 (Simulation time: 0 hr 3 min 19 sec) 
Heartbeat CPU 0 instructions: 6000001 cycles: 3066355 heartbeat IPC: 1.95025 cumulative IPC: 1.95672 (Simulation time: 0 hr 3 min 55 sec) 
Heartbeat CPU 0 instructions: 7000001 cycles: 3575214 heartbeat IPC: 1.96518 cumulative IPC: 1.95793 (Simulation time: 0 hr 4 min 33 sec) 
Heartbeat CPU 0 instructions: 8000000 cycles: 4086159 heartbeat IPC: 1.95716 cumulative IPC: 1.95783 (Simulation time: 0 hr 5 min 13 sec) 
Heartbeat CPU 0 instructions: 9000000 cycles: 4604611 heartbeat IPC: 1.92882 cumulative IPC: 1.95456 (Simulation time: 0 hr 5 min 49 sec) 
Heartbeat CPU 0 instructions: 10000001 cycles: 5137831 heartbeat IPC: 1.8754 cumulative IPC: 1.94635 (Simulation time: 0 hr 6 min 25 sec) 

Warmup complete CPU 0 instructions: 10000001 cycles: 5137831 (Simulation time: 0 hr 6 min 25 sec) 

Heartbeat CPU 0 instructions: 11000001 cycles: 13727023 heartbeat IPC: 0.116425 cumulative IPC: 0.116425 (Simulation time: 0 hr 7 min 16 sec) 
Heartbeat CPU 0 instructions: 12000000 cycles: 21553416 heartbeat IPC: 0.127773 cumulative IPC: 0.121835 (Simulation time: 0 hr 8 min 3 sec) 
Heartbeat CPU 0 instructions: 13000001 cycles: 29507884 heartbeat IPC: 0.125716 cumulative IPC: 0.123102 (Simulation time: 0 hr 8 min 51 sec) 
Heartbeat CPU 0 instructions: 14000001 cycles: 36863142 heartbeat IPC: 0.135957 cumulative IPC: 0.126082 (Simulation time: 0 hr 9 min 38 sec) 
Heartbeat CPU 0 instructions: 15000000 cycles: 44803961 heartbeat IPC: 0.125931 cumulative IPC: 0.126052 (Simulation time: 0 hr 10 min 25 sec) 
Heartbeat CPU 0 instructions: 16000000 cycles: 60062156 heartbeat IPC: 0.0655385 cumulative IPC: 0.109241 (Simulation time: 0 hr 11 min 35 sec) 
Heartbeat CPU 0 instructions: 17000001 cycles: 70113405 heartbeat IPC: 0.0994902 cumulative IPC: 0.107733 (Simulation time: 0 hr 12 min 29 sec) 
Heartbeat CPU 0 instructions: 18000000 cycles: 78116328 heartbeat IPC: 0.124954 cumulative IPC: 0.109621 (Simulation time: 0 hr 13 min 20 sec) 
Heartbeat CPU 0 instructions: 19000001 cycles: 86531001 heartbeat IPC: 0.11884 cumulative IPC: 0.110574 (Simulation time: 0 hr 14 min 7 sec) 
Heartbeat CPU 0 instructions: 20000000 cycles: 94743868 heartbeat IPC: 0.12176 cumulative IPC: 0.1116 (Simulation time: 0 hr 14 min 59 sec) 
Heartbeat CPU 0 instructions: 21000000 cycles: 102819648 heartbeat IPC: 0.123827 cumulative IPC: 0.112611 (Simulation time: 0 hr 15 min 52 sec) 
Heartbeat CPU 0 instructions: 22000002 cycles: 111113626 heartbeat IPC: 0.12057 cumulative IPC: 0.113233 (Simulation time: 0 hr 16 min 43 sec) 
Heartbeat CPU 0 instructions: 23000002 cycles: 121070171 heartbeat IPC: 0.100436 cumulative IPC: 0.112134 (Simulation time: 0 hr 17 min 37 sec) 
Heartbeat CPU 0 instructions: 24000000 cycles: 136165493 heartbeat IPC: 0.0662456 cumulative IPC: 0.106848 (Simulation time: 0 hr 18 min 43 sec) 
Heartbeat CPU 0 instructions: 25000000 cycles: 144059159 heartbeat IPC: 0.126684 cumulative IPC: 0.107975 (Simulation time: 0 hr 19 min 32 sec) 
Heartbeat CPU 0 instructions: 26000000 cycles: 150602140 heartbeat IPC: 0.152836 cumulative IPC: 0.109993 (Simulation time: 0 hr 20 min 17 sec) 
Heartbeat CPU 0 instructions: 27000002 cycles: 157241135 heartbeat IPC: 0.150626 cumulative IPC: 0.111766 (Simulation time: 0 hr 21 min 5 sec) 
Heartbeat CPU 0 instructions: 28000000 cycles: 172156559 heartbeat IPC: 0.0670446 cumulative IPC: 0.107772 (Simulation time: 0 hr 22 min 12 sec) 
Heartbeat CPU 0 instructions: 29000003 cycles: 180608086 heartbeat IPC: 0.118322 cumulative IPC: 0.10828 (Simulation time: 0 hr 23 min 3 sec) 
Heartbeat CPU 0 instructions: 30000003 cycles: 186668981 heartbeat IPC: 0.164992 cumulative IPC: 0.110174 (Simulation time: 0 hr 23 min 45 sec) 
Heartbeat CPU 0 instructions: 31000003 cycles: 194245367 heartbeat IPC: 0.131989 cumulative IPC: 0.111048 (Simulation time: 0 hr 24 min 32 sec) 
Heartbeat CPU 0 instructions: 32000000 cycles: 209354936 heartbeat IPC: 0.066183 cumulative IPC: 0.107728 (Simulation time: 0 hr 25 min 40 sec) 
Heartbeat CPU 0 instructions: 33000000 cycles: 216177923 heartbeat IPC: 0.146563 cumulative IPC: 0.108984 (Simulation time: 0 hr 26 min 27 sec) 
Heartbeat CPU 0 instructions: 34000000 cycles: 223203749 heartbeat IPC: 0.142332 cumulative IPC: 0.110058 (Simulation time: 0 hr 27 min 17 sec) 
Heartbeat CPU 0 instructions: 35000001 cycles: 230810028 heartbeat IPC: 0.13147 cumulative IPC: 0.11078 (Simulation time: 0 hr 28 min 5 sec) 
Heartbeat CPU 0 instructions: 36000000 cycles: 246723620 heartbeat IPC: 0.0628393 cumulative IPC: 0.107622 (Simulation time: 0 hr 29 min 15 sec) 
Heartbeat CPU 0 instructions: 37000001 cycles: 254499999 heartbeat IPC: 0.128595 cumulative IPC: 0.108276 (Simulation time: 0 hr 30 min 3 sec) 
Heartbeat CPU 0 instructions: 38000000 cycles: 261821885 heartbeat IPC: 0.136577 cumulative IPC: 0.109084 (Simulation time: 0 hr 30 min 49 sec) 
Heartbeat CPU 0 instructions: 39000000 cycles: 268074867 heartbeat IPC: 0.159924 cumulative IPC: 0.110293 (Simulation time: 0 hr 31 min 33 sec) 
Heartbeat CPU 0 instructions: 40000000 cycles: 282701723 heartbeat IPC: 0.0683674 cumulative IPC: 0.108083 (Simulation time: 0 hr 32 min 39 sec) 
Heartbeat CPU 0 instructions: 41000003 cycles: 291359027 heartbeat IPC: 0.11551 cumulative IPC: 0.108308 (Simulation time: 0 hr 33 min 32 sec) 
Heartbeat CPU 0 instructions: 42000000 cycles: 297647937 heartbeat IPC: 0.15901 cumulative IPC: 0.109398 (Simulation time: 0 hr 34 min 18 sec) 
Heartbeat CPU 0 instructions: 43000001 cycles: 307981165 heartbeat IPC: 0.0967753 cumulative IPC: 0.108967 (Simulation time: 0 hr 35 min 12 sec) 
Heartbeat CPU 0 instructions: 44000000 cycles: 320169467 heartbeat IPC: 0.0820458 cumulative IPC: 0.107926 (Simulation time: 0 hr 36 min 11 sec) 
Heartbeat CPU 0 instructions: 45000000 cycles: 325724758 heartbeat IPC: 0.180009 cumulative IPC: 0.109175 (Simulation time: 0 hr 36 min 54 sec) 
Heartbeat CPU 0 instructions: 46000002 cycles: 335437234 heartbeat IPC: 0.102961 cumulative IPC: 0.108992 (Simulation time: 0 hr 37 min 47 sec) 
Heartbeat CPU 0 instructions: 47000002 cycles: 348022497 heartbeat IPC: 0.079458 cumulative IPC: 0.107908 (Simulation time: 0 hr 38 min 50 sec) 
Heartbeat CPU 0 instructions: 48000000 cycles: 353813628 heartbeat IPC: 0.172678 cumulative IPC: 0.108984 (Simulation time: 0 hr 39 min 32 sec) 
Heartbeat CPU 0 instructions: 49000003 cycles: 363479899 heartbeat IPC: 0.103453 cumulative IPC: 0.108835 (Simulation time: 0 hr 40 min 24 sec) 
Heartbeat CPU 0 instructions: 50000000 cycles: 376108402 heartbeat IPC: 0.0791857 cumulative IPC: 0.107825 (Simulation time: 0 hr 41 min 30 sec) 
Heartbeat CPU 0 instructions: 51000000 cycles: 381704339 heartbeat IPC: 0.178701 cumulative IPC: 0.108879 (Simulation time: 0 hr 42 min 13 sec) 
Heartbeat CPU 0 instructions: 52000000 cycles: 390579356 heartbeat IPC: 0.112676 cumulative IPC: 0.108966 (Simulation time: 0 hr 43 min 3 sec) 
Heartbeat CPU 0 instructions: 53000000 cycles: 404192141 heartbeat IPC: 0.0734604 cumulative IPC: 0.107755 (Simulation time: 0 hr 44 min 4 sec) 
Heartbeat CPU 0 instructions: 54000000 cycles: 410020736 heartbeat IPC: 0.171568 cumulative IPC: 0.108673 (Simulation time: 0 hr 44 min 47 sec) 
Heartbeat CPU 0 instructions: 55000000 cycles: 417307325 heartbeat IPC: 0.137238 cumulative IPC: 0.109178 (Simulation time: 0 hr 45 min 35 sec) 
Heartbeat CPU 0 instructions: 56000000 cycles: 432215489 heartbeat IPC: 0.0670773 cumulative IPC: 0.107709 (Simulation time: 0 hr 46 min 41 sec) 
Heartbeat CPU 0 instructions: 57000001 cycles: 437982807 heartbeat IPC: 0.173391 cumulative IPC: 0.108584 (Simulation time: 0 hr 47 min 28 sec) 
Heartbeat CPU 0 instructions: 58000001 cycles: 443528119 heartbeat IPC: 0.180333 cumulative IPC: 0.109491 (Simulation time: 0 hr 48 min 11 sec) 
Heartbeat CPU 0 instructions: 59000000 cycles: 459558181 heartbeat IPC: 0.0623827 cumulative IPC: 0.10783 (Simulation time: 0 hr 49 min 14 sec) 
Heartbeat CPU 0 instructions: 60000000 cycles: 465974596 heartbeat IPC: 0.15585 cumulative IPC: 0.108498 (Simulation time: 0 hr 49 min 56 sec) 
Heartbeat CPU 0 instructions: 61000000 cycles: 472230798 heartbeat IPC: 0.159841 cumulative IPC: 0.109186 (Simulation time: 0 hr 50 min 36 sec) 
Heartbeat CPU 0 instructions: 62000001 cycles: 484442034 heartbeat IPC: 0.0818919 cumulative IPC: 0.108491 (Simulation time: 0 hr 51 min 31 sec) 
Heartbeat CPU 0 instructions: 63000001 cycles: 494540255 heartbeat IPC: 0.0990273 cumulative IPC: 0.108295 (Simulation time: 0 hr 52 min 21 sec) 
Heartbeat CPU 0 instructions: 64000000 cycles: 500108464 heartbeat IPC: 0.179591 cumulative IPC: 0.109097 (Simulation time: 0 hr 53 min 1 sec) 
Heartbeat CPU 0 instructions: 65000000 cycles: 506907377 heartbeat IPC: 0.147082 cumulative IPC: 0.109612 (Simulation time: 0 hr 53 min 40 sec) 
Heartbeat CPU 0 instructions: 66000000 cycles: 521976978 heartbeat IPC: 0.0663588 cumulative IPC: 0.108351 (Simulation time: 0 hr 54 min 30 sec) 
Heartbeat CPU 0 instructions: 67000002 cycles: 527707930 heartbeat IPC: 0.174491 cumulative IPC: 0.109076 (Simulation time: 0 hr 55 min 3 sec) 
Heartbeat CPU 0 instructions: 68000000 cycles: 533062454 heartbeat IPC: 0.186758 cumulative IPC: 0.109864 (Simulation time: 0 hr 55 min 34 sec) 
Heartbeat CPU 0 instructions: 69000000 cycles: 546129094 heartbeat IPC: 0.0765308 cumulative IPC: 0.109059 (Simulation time: 0 hr 56 min 16 sec) 
Heartbeat CPU 0 instructions: 70000000 cycles: 555163851 heartbeat IPC: 0.110684 cumulative IPC: 0.109086 (Simulation time: 0 hr 56 min 51 sec) 
Heartbeat CPU 0 instructions: 71000002 cycles: 560594089 heartbeat IPC: 0.184154 cumulative IPC: 0.10982 (Simulation time: 0 hr 57 min 21 sec) 
Heartbeat CPU 0 instructions: 72000000 cycles: 567945413 heartbeat IPC: 0.13603 cumulative IPC: 0.110162 (Simulation time: 0 hr 57 min 53 sec) 
Heartbeat CPU 0 instructions: 73000000 cycles: 582436854 heartbeat IPC: 0.0690062 cumulative IPC: 0.109129 (Simulation time: 0 hr 58 min 33 sec) 
Heartbeat CPU 0 instructions: 74000000 cycles: 588226288 heartbeat IPC: 0.172728 cumulative IPC: 0.10976 (Simulation time: 0 hr 58 min 58 sec) 
Heartbeat CPU 0 instructions: 75000001 cycles: 593947788 heartbeat IPC: 0.17478 cumulative IPC: 0.110392 (Simulation time: 0 hr 59 min 23 sec) 
Heartbeat CPU 0 instructions: 76000000 cycles: 606002655 heartbeat IPC: 0.082954 cumulative IPC: 0.109842 (Simulation time: 0 hr 59 min 57 sec) 
Heartbeat CPU 0 instructions: 77000000 cycles: 616565804 heartbeat IPC: 0.0946687 cumulative IPC: 0.10958 (Simulation time: 1 hr 0 min 26 sec) 
Heartbeat CPU 0 instructions: 78000000 cycles: 622839644 heartbeat IPC: 0.159392 cumulative IPC: 0.110085 (Simulation time: 1 hr 0 min 49 sec) 
Heartbeat CPU 0 instructions: 79000003 cycles: 629548953 heartbeat IPC: 0.149047 cumulative IPC: 0.110504 (Simulation time: 1 hr 1 min 9 sec) 
Heartbeat CPU 0 instructions: 80000000 cycles: 645078960 heartbeat IPC: 0.0643913 cumulative IPC: 0.109385 (Simulation time: 1 hr 1 min 36 sec) 
Heartbeat CPU 0 instructions: 81000001 cycles: 651894704 heartbeat IPC: 0.146719 cumulative IPC: 0.109779 (Simulation time: 1 hr 1 min 53 sec) 
Heartbeat CPU 0 instructions: 82000001 cycles: 658094883 heartbeat IPC: 0.161286 cumulative IPC: 0.110268 (Simulation time: 1 hr 2 min 8 sec) 
Heartbeat CPU 0 instructions: 83000001 cycles: 670496944 heartbeat IPC: 0.0806318 cumulative IPC: 0.109715 (Simulation time: 1 hr 2 min 30 sec) 
Heartbeat CPU 0 instructions: 84000000 cycles: 681338128 heartbeat IPC: 0.0922408 cumulative IPC: 0.109435 (Simulation time: 1 hr 2 min 49 sec) 
Heartbeat CPU 0 instructions: 85000000 cycles: 687110027 heartbeat IPC: 0.173253 cumulative IPC: 0.109975 (Simulation time: 1 hr 3 min 4 sec) 
Heartbeat CPU 0 instructions: 86000002 cycles: 694281688 heartbeat IPC: 0.139438 cumulative IPC: 0.110282 (Simulation time: 1 hr 3 min 18 sec) 
Heartbeat CPU 0 instructions: 87000000 cycles: 709416431 heartbeat IPC: 0.066073 cumulative IPC: 0.109332 (Simulation time: 1 hr 3 min 33 sec) 
Heartbeat CPU 0 instructions: 88000000 cycles: 715795790 heartbeat IPC: 0.156756 cumulative IPC: 0.109757 (Simulation time: 1 hr 3 min 44 sec) 
Heartbeat CPU 0 instructions: 89000000 cycles: 722318865 heartbeat IPC: 0.153302 cumulative IPC: 0.110153 (Simulation time: 1 hr 3 min 54 sec) 
Heartbeat CPU 0 instructions: 90000002 cycles: 736083419 heartbeat IPC: 0.0726505 cumulative IPC: 0.109447 (Simulation time: 1 hr 4 min 7 sec) 
Heartbeat CPU 0 instructions: 91000000 cycles: 745033171 heartbeat IPC: 0.111735 cumulative IPC: 0.109475 (Simulation time: 1 hr 4 min 16 sec) 
Heartbeat CPU 0 instructions: 92000000 cycles: 750998737 heartbeat IPC: 0.167629 cumulative IPC: 0.10994 (Simulation time: 1 hr 4 min 24 sec) 
Heartbeat CPU 0 instructions: 93000003 cycles: 761918336 heartbeat IPC: 0.0915787 cumulative IPC: 0.109675 (Simulation time: 1 hr 4 min 34 sec) 
Heartbeat CPU 0 instructions: 94000000 cycles: 773943031 heartbeat IPC: 0.0831619 cumulative IPC: 0.10926 (Simulation time: 1 hr 4 min 42 sec) 
Heartbeat CPU 0 instructions: 95000000 cycles: 780136340 heartbeat IPC: 0.161465 cumulative IPC: 0.109678 (Simulation time: 1 hr 4 min 47 sec) 
Heartbeat CPU 0 instructions: 96000000 cycles: 787200087 heartbeat IPC: 0.141568 cumulative IPC: 0.109966 (Simulation time: 1 hr 4 min 52 sec) 
Heartbeat CPU 0 instructions: 97000003 cycles: 803103648 heartbeat IPC: 0.0628792 cumulative IPC: 0.109027 (Simulation time: 1 hr 5 min 1 sec) 
Heartbeat CPU 0 instructions: 98000002 cycles: 809745261 heartbeat IPC: 0.150566 cumulative IPC: 0.10937 (Simulation time: 1 hr 5 min 6 sec) 
Heartbeat CPU 0 instructions: 99000000 cycles: 816022532 heartbeat IPC: 0.159305 cumulative IPC: 0.109757 (Simulation time: 1 hr 5 min 13 sec) 
Heartbeat CPU 0 instructions: 100000000 cycles: 829500619 heartbeat IPC: 0.0741945 cumulative IPC: 0.109175 (Simulation time: 1 hr 5 min 20 sec) 
Heartbeat CPU 0 instructions: 101000000 cycles: 839433461 heartbeat IPC: 0.100676 cumulative IPC: 0.109074 (Simulation time: 1 hr 5 min 27 sec) 
Heartbeat CPU 0 instructions: 102000000 cycles: 845996497 heartbeat IPC: 0.152369 cumulative IPC: 0.109412 (Simulation time: 1 hr 5 min 32 sec) 
Heartbeat CPU 0 instructions: 103000001 cycles: 852240289 heartbeat IPC: 0.160159 cumulative IPC: 0.109786 (Simulation time: 1 hr 5 min 37 sec) 
Heartbeat CPU 0 instructions: 104000000 cycles: 868347562 heartbeat IPC: 0.0620837 cumulative IPC: 0.108896 (Simulation time: 1 hr 5 min 46 sec) 
Heartbeat CPU 0 instructions: 105000000 cycles: 875903841 heartbeat IPC: 0.13234 cumulative IPC: 0.109099 (Simulation time: 1 hr 5 min 52 sec) 
Heartbeat CPU 0 instructions: 106000000 cycles: 882474358 heartbeat IPC: 0.152195 cumulative IPC: 0.109422 (Simulation time: 1 hr 5 min 58 sec) 
Heartbeat CPU 0 instructions: 107000000 cycles: 891957060 heartbeat IPC: 0.105455 cumulative IPC: 0.10938 (Simulation time: 1 hr 6 min 5 sec) 
Heartbeat CPU 0 instructions: 108000000 cycles: 905733429 heartbeat IPC: 0.0725881 cumulative IPC: 0.108817 (Simulation time: 1 hr 6 min 14 sec) 
Heartbeat CPU 0 instructions: 109000001 cycles: 912294645 heartbeat IPC: 0.152411 cumulative IPC: 0.109132 (Simulation time: 1 hr 6 min 20 sec) 
Heartbeat CPU 0 instructions: 110000000 cycles: 919334357 heartbeat IPC: 0.142051 cumulative IPC: 0.109386 (Simulation time: 1 hr 6 min 25 sec) 
Finished CPU 0 instructions: 100000002 cycles: 914196528 cummulative IPC: 0.109386 (Simulation time: 1 hr 6 min 25 sec) 

ChampSim completed all CPUs

Region of Interest Statistics

CPU 0 cummulative IPC: 0.109386 instructions: 100000002 cycles: 914196528
LLC TOTAL     ACCESS:   21078362  HIT:    9781003  MISS:   11297359
LLC LOAD      ACCESS:    9505689  HIT:    5899009  MISS:    3606680
LLC RFO       ACCESS:     164370  HIT:      54738  MISS:     109632
LLC PREFETCH  ACCESS:    9645362  HIT:    2323802  MISS:    7321560
LLC WRITEBACK ACCESS:    1762941  HIT:    1503454  MISS:     259487
Insertion Distribution: 
	LOAD 913886 0 654202 2279464 
	RFO 60976 0 31265 21342 
	PREF 0 1725432 1824886 4921337 
	WRITEBACK 0 0 0 276556 
Total Prefetch Downgrades: 1649888
