
*** ChampSim Multicore Out-of-Order Simulator ***

Warmup Instructions: 10000000
Simulation Instructions: 100000000
Configuration: 2
Number of CPUs: 1
LLC sets: 2048
LLC ways: 16
Off-chip DRAM Channels: 1 Width: 64-bit Data Rate: 1600 MT/s

CPU 0 runs /datasets/cs240c-wi22-a00-public/data/Assignment2-gz/zeusmp_100B.trace.gz
CPU 0 L1D next line prefetcher
CPU 0 L2C IP-based stride prefetcher
Initialize SRRIP state
Heartbeat CPU 0 instructions: 1000002 cycles: 462677 heartbeat IPC: 2.16134 cumulative IPC: 2.16134 (Simulation time: 0 hr 0 min 28 sec) 
Heartbeat CPU 0 instructions: 2000001 cycles: 925467 heartbeat IPC: 2.16081 cumulative IPC: 2.16107 (Simulation time: 0 hr 0 min 56 sec) 
Heartbeat CPU 0 instructions: 3000003 cycles: 1388524 heartbeat IPC: 2.15957 cumulative IPC: 2.16057 (Simulation time: 0 hr 1 min 24 sec) 
Heartbeat CPU 0 instructions: 4000000 cycles: 1851251 heartbeat IPC: 2.16109 cumulative IPC: 2.1607 (Simulation time: 0 hr 1 min 54 sec) 
Heartbeat CPU 0 instructions: 5000003 cycles: 2314192 heartbeat IPC: 2.16011 cumulative IPC: 2.16058 (Simulation time: 0 hr 2 min 24 sec) 
Heartbeat CPU 0 instructions: 6000001 cycles: 2777070 heartbeat IPC: 2.16039 cumulative IPC: 2.16055 (Simulation time: 0 hr 2 min 52 sec) 
Heartbeat CPU 0 instructions: 7000001 cycles: 3239751 heartbeat IPC: 2.16132 cumulative IPC: 2.16066 (Simulation time: 0 hr 3 min 19 sec) 
Heartbeat CPU 0 instructions: 8000000 cycles: 3702619 heartbeat IPC: 2.16044 cumulative IPC: 2.16063 (Simulation time: 0 hr 3 min 48 sec) 
Heartbeat CPU 0 instructions: 9000003 cycles: 4165387 heartbeat IPC: 2.16092 cumulative IPC: 2.16066 (Simulation time: 0 hr 4 min 16 sec) 
Heartbeat CPU 0 instructions: 10000001 cycles: 4628711 heartbeat IPC: 2.15831 cumulative IPC: 2.16043 (Simulation time: 0 hr 4 min 43 sec) 

Warmup complete CPU 0 instructions: 10000001 cycles: 4628711 (Simulation time: 0 hr 4 min 43 sec) 

Heartbeat CPU 0 instructions: 11000000 cycles: 5309465 heartbeat IPC: 1.46896 cumulative IPC: 1.46896 (Simulation time: 0 hr 5 min 13 sec) 
Heartbeat CPU 0 instructions: 12000000 cycles: 5990252 heartbeat IPC: 1.46889 cumulative IPC: 1.46892 (Simulation time: 0 hr 5 min 43 sec) 
Heartbeat CPU 0 instructions: 13000001 cycles: 6691824 heartbeat IPC: 1.42537 cumulative IPC: 1.45411 (Simulation time: 0 hr 6 min 15 sec) 
Heartbeat CPU 0 instructions: 14000003 cycles: 7376485 heartbeat IPC: 1.46058 cumulative IPC: 1.45572 (Simulation time: 0 hr 6 min 46 sec) 
Heartbeat CPU 0 instructions: 15000002 cycles: 8051623 heartbeat IPC: 1.48118 cumulative IPC: 1.46074 (Simulation time: 0 hr 7 min 17 sec) 
Heartbeat CPU 0 instructions: 16000000 cycles: 8718600 heartbeat IPC: 1.4993 cumulative IPC: 1.46703 (Simulation time: 0 hr 7 min 47 sec) 
Heartbeat CPU 0 instructions: 17000003 cycles: 9495122 heartbeat IPC: 1.2878 cumulative IPC: 1.43843 (Simulation time: 0 hr 8 min 17 sec) 
Heartbeat CPU 0 instructions: 18000000 cycles: 10190729 heartbeat IPC: 1.43759 cumulative IPC: 1.43833 (Simulation time: 0 hr 8 min 46 sec) 
Heartbeat CPU 0 instructions: 19000002 cycles: 10885022 heartbeat IPC: 1.44032 cumulative IPC: 1.43855 (Simulation time: 0 hr 9 min 15 sec) 
Heartbeat CPU 0 instructions: 20000000 cycles: 11570313 heartbeat IPC: 1.45923 cumulative IPC: 1.44059 (Simulation time: 0 hr 9 min 46 sec) 
Heartbeat CPU 0 instructions: 21000001 cycles: 12279469 heartbeat IPC: 1.41013 cumulative IPC: 1.43777 (Simulation time: 0 hr 10 min 19 sec) 
Heartbeat CPU 0 instructions: 22000001 cycles: 12976827 heartbeat IPC: 1.43398 cumulative IPC: 1.43745 (Simulation time: 0 hr 10 min 50 sec) 
Heartbeat CPU 0 instructions: 23000002 cycles: 13693778 heartbeat IPC: 1.3948 cumulative IPC: 1.43408 (Simulation time: 0 hr 11 min 22 sec) 
Heartbeat CPU 0 instructions: 24000000 cycles: 14389440 heartbeat IPC: 1.43748 cumulative IPC: 1.43432 (Simulation time: 0 hr 11 min 55 sec) 
Heartbeat CPU 0 instructions: 25000001 cycles: 15099373 heartbeat IPC: 1.40859 cumulative IPC: 1.43257 (Simulation time: 0 hr 12 min 25 sec) 
Heartbeat CPU 0 instructions: 26000001 cycles: 15795834 heartbeat IPC: 1.43583 cumulative IPC: 1.43278 (Simulation time: 0 hr 12 min 54 sec) 
Heartbeat CPU 0 instructions: 27000000 cycles: 16510661 heartbeat IPC: 1.39894 cumulative IPC: 1.43074 (Simulation time: 0 hr 13 min 26 sec) 
Heartbeat CPU 0 instructions: 28000000 cycles: 17208378 heartbeat IPC: 1.43325 cumulative IPC: 1.43088 (Simulation time: 0 hr 13 min 57 sec) 
Heartbeat CPU 0 instructions: 29000000 cycles: 17903170 heartbeat IPC: 1.43928 cumulative IPC: 1.43132 (Simulation time: 0 hr 14 min 28 sec) 
Heartbeat CPU 0 instructions: 30000003 cycles: 18612079 heartbeat IPC: 1.41062 cumulative IPC: 1.43027 (Simulation time: 0 hr 14 min 58 sec) 
Heartbeat CPU 0 instructions: 31000000 cycles: 19307859 heartbeat IPC: 1.43723 cumulative IPC: 1.4306 (Simulation time: 0 hr 15 min 30 sec) 
Heartbeat CPU 0 instructions: 32000000 cycles: 20020172 heartbeat IPC: 1.40388 cumulative IPC: 1.42936 (Simulation time: 0 hr 16 min 1 sec) 
Heartbeat CPU 0 instructions: 33000002 cycles: 20714039 heartbeat IPC: 1.4412 cumulative IPC: 1.42987 (Simulation time: 0 hr 16 min 32 sec) 
Heartbeat CPU 0 instructions: 34000002 cycles: 21421665 heartbeat IPC: 1.41318 cumulative IPC: 1.42917 (Simulation time: 0 hr 17 min 2 sec) 
Heartbeat CPU 0 instructions: 35000003 cycles: 22118545 heartbeat IPC: 1.43497 cumulative IPC: 1.4294 (Simulation time: 0 hr 17 min 32 sec) 
Heartbeat CPU 0 instructions: 36000000 cycles: 22828465 heartbeat IPC: 1.40861 cumulative IPC: 1.42859 (Simulation time: 0 hr 18 min 2 sec) 
Heartbeat CPU 0 instructions: 37000001 cycles: 23528386 heartbeat IPC: 1.42873 cumulative IPC: 1.4286 (Simulation time: 0 hr 18 min 30 sec) 
Heartbeat CPU 0 instructions: 38000003 cycles: 24237415 heartbeat IPC: 1.41038 cumulative IPC: 1.42794 (Simulation time: 0 hr 18 min 57 sec) 
Heartbeat CPU 0 instructions: 39000001 cycles: 24936151 heartbeat IPC: 1.43115 cumulative IPC: 1.42805 (Simulation time: 0 hr 19 min 25 sec) 
Heartbeat CPU 0 instructions: 40000000 cycles: 25647498 heartbeat IPC: 1.40578 cumulative IPC: 1.42729 (Simulation time: 0 hr 19 min 55 sec) 
Heartbeat CPU 0 instructions: 41000002 cycles: 26345901 heartbeat IPC: 1.43184 cumulative IPC: 1.42744 (Simulation time: 0 hr 20 min 24 sec) 
Heartbeat CPU 0 instructions: 42000001 cycles: 27042169 heartbeat IPC: 1.43623 cumulative IPC: 1.42771 (Simulation time: 0 hr 20 min 54 sec) 
Heartbeat CPU 0 instructions: 43000003 cycles: 27755580 heartbeat IPC: 1.40172 cumulative IPC: 1.42691 (Simulation time: 0 hr 21 min 22 sec) 
Heartbeat CPU 0 instructions: 44000000 cycles: 28451020 heartbeat IPC: 1.43793 cumulative IPC: 1.42723 (Simulation time: 0 hr 21 min 48 sec) 
Heartbeat CPU 0 instructions: 45000001 cycles: 29161053 heartbeat IPC: 1.40839 cumulative IPC: 1.42669 (Simulation time: 0 hr 22 min 16 sec) 
Heartbeat CPU 0 instructions: 46000002 cycles: 29858375 heartbeat IPC: 1.43406 cumulative IPC: 1.42689 (Simulation time: 0 hr 22 min 43 sec) 
Heartbeat CPU 0 instructions: 47000003 cycles: 30568749 heartbeat IPC: 1.40771 cumulative IPC: 1.42637 (Simulation time: 0 hr 23 min 10 sec) 
Heartbeat CPU 0 instructions: 48000000 cycles: 31264254 heartbeat IPC: 1.4378 cumulative IPC: 1.42667 (Simulation time: 0 hr 23 min 39 sec) 
Heartbeat CPU 0 instructions: 49000001 cycles: 31973108 heartbeat IPC: 1.41073 cumulative IPC: 1.42625 (Simulation time: 0 hr 24 min 8 sec) 
Heartbeat CPU 0 instructions: 50000001 cycles: 32672377 heartbeat IPC: 1.43006 cumulative IPC: 1.42635 (Simulation time: 0 hr 24 min 37 sec) 
Heartbeat CPU 0 instructions: 51000002 cycles: 33380192 heartbeat IPC: 1.4128 cumulative IPC: 1.42601 (Simulation time: 0 hr 25 min 7 sec) 
Heartbeat CPU 0 instructions: 52000000 cycles: 34076036 heartbeat IPC: 1.4371 cumulative IPC: 1.42628 (Simulation time: 0 hr 25 min 36 sec) 
Heartbeat CPU 0 instructions: 53000001 cycles: 34789095 heartbeat IPC: 1.40241 cumulative IPC: 1.42571 (Simulation time: 0 hr 26 min 5 sec) 
Heartbeat CPU 0 instructions: 54000003 cycles: 35489514 heartbeat IPC: 1.42772 cumulative IPC: 1.42576 (Simulation time: 0 hr 26 min 34 sec) 
Heartbeat CPU 0 instructions: 55000003 cycles: 36190948 heartbeat IPC: 1.42565 cumulative IPC: 1.42575 (Simulation time: 0 hr 27 min 4 sec) 
Heartbeat CPU 0 instructions: 56000000 cycles: 36896601 heartbeat IPC: 1.41712 cumulative IPC: 1.42557 (Simulation time: 0 hr 27 min 34 sec) 
Heartbeat CPU 0 instructions: 57000003 cycles: 37591419 heartbeat IPC: 1.43923 cumulative IPC: 1.42585 (Simulation time: 0 hr 28 min 4 sec) 
Heartbeat CPU 0 instructions: 58000003 cycles: 38299641 heartbeat IPC: 1.41199 cumulative IPC: 1.42556 (Simulation time: 0 hr 28 min 34 sec) 
Heartbeat CPU 0 instructions: 59000000 cycles: 38997067 heartbeat IPC: 1.43384 cumulative IPC: 1.42573 (Simulation time: 0 hr 29 min 8 sec) 
Heartbeat CPU 0 instructions: 60000000 cycles: 39710672 heartbeat IPC: 1.40134 cumulative IPC: 1.42523 (Simulation time: 0 hr 29 min 38 sec) 
Heartbeat CPU 0 instructions: 61000000 cycles: 40410187 heartbeat IPC: 1.42956 cumulative IPC: 1.42532 (Simulation time: 0 hr 30 min 6 sec) 
Heartbeat CPU 0 instructions: 62000001 cycles: 41121987 heartbeat IPC: 1.40489 cumulative IPC: 1.42492 (Simulation time: 0 hr 30 min 37 sec) 
Heartbeat CPU 0 instructions: 63000001 cycles: 41819323 heartbeat IPC: 1.43403 cumulative IPC: 1.42509 (Simulation time: 0 hr 31 min 7 sec) 
Heartbeat CPU 0 instructions: 64000000 cycles: 42532871 heartbeat IPC: 1.40145 cumulative IPC: 1.42465 (Simulation time: 0 hr 31 min 38 sec) 
Heartbeat CPU 0 instructions: 65000003 cycles: 43229502 heartbeat IPC: 1.43548 cumulative IPC: 1.42484 (Simulation time: 0 hr 32 min 8 sec) 
Heartbeat CPU 0 instructions: 66000003 cycles: 43939075 heartbeat IPC: 1.4093 cumulative IPC: 1.42456 (Simulation time: 0 hr 32 min 35 sec) 
Heartbeat CPU 0 instructions: 67000000 cycles: 44636943 heartbeat IPC: 1.43293 cumulative IPC: 1.42471 (Simulation time: 0 hr 33 min 4 sec) 
Heartbeat CPU 0 instructions: 68000000 cycles: 45344220 heartbeat IPC: 1.41387 cumulative IPC: 1.42452 (Simulation time: 0 hr 33 min 34 sec) 
Heartbeat CPU 0 instructions: 69000000 cycles: 46043908 heartbeat IPC: 1.42921 cumulative IPC: 1.4246 (Simulation time: 0 hr 34 min 3 sec) 
Heartbeat CPU 0 instructions: 70000003 cycles: 46737523 heartbeat IPC: 1.44173 cumulative IPC: 1.42488 (Simulation time: 0 hr 34 min 32 sec) 
Heartbeat CPU 0 instructions: 71000003 cycles: 47447462 heartbeat IPC: 1.40857 cumulative IPC: 1.42461 (Simulation time: 0 hr 35 min 1 sec) 
Heartbeat CPU 0 instructions: 72000000 cycles: 48146018 heartbeat IPC: 1.43152 cumulative IPC: 1.42472 (Simulation time: 0 hr 35 min 28 sec) 
Heartbeat CPU 0 instructions: 73000002 cycles: 48858175 heartbeat IPC: 1.40419 cumulative IPC: 1.42439 (Simulation time: 0 hr 35 min 56 sec) 
Heartbeat CPU 0 instructions: 74000003 cycles: 49552308 heartbeat IPC: 1.44065 cumulative IPC: 1.42464 (Simulation time: 0 hr 36 min 24 sec) 
Heartbeat CPU 0 instructions: 75000003 cycles: 50261507 heartbeat IPC: 1.41004 cumulative IPC: 1.42441 (Simulation time: 0 hr 36 min 52 sec) 
Heartbeat CPU 0 instructions: 76000000 cycles: 50957077 heartbeat IPC: 1.43767 cumulative IPC: 1.42461 (Simulation time: 0 hr 37 min 24 sec) 
Heartbeat CPU 0 instructions: 77000000 cycles: 51676130 heartbeat IPC: 1.39072 cumulative IPC: 1.4241 (Simulation time: 0 hr 37 min 54 sec) 
Heartbeat CPU 0 instructions: 78000002 cycles: 52376437 heartbeat IPC: 1.42795 cumulative IPC: 1.42415 (Simulation time: 0 hr 38 min 25 sec) 
Heartbeat CPU 0 instructions: 79000000 cycles: 53086008 heartbeat IPC: 1.4093 cumulative IPC: 1.42393 (Simulation time: 0 hr 38 min 56 sec) 
Heartbeat CPU 0 instructions: 80000000 cycles: 53781656 heartbeat IPC: 1.43751 cumulative IPC: 1.42413 (Simulation time: 0 hr 39 min 28 sec) 
Heartbeat CPU 0 instructions: 81000003 cycles: 54495084 heartbeat IPC: 1.40169 cumulative IPC: 1.42381 (Simulation time: 0 hr 39 min 59 sec) 
Heartbeat CPU 0 instructions: 82000000 cycles: 55195948 heartbeat IPC: 1.42681 cumulative IPC: 1.42385 (Simulation time: 0 hr 40 min 29 sec) 
Heartbeat CPU 0 instructions: 83000002 cycles: 55890198 heartbeat IPC: 1.44041 cumulative IPC: 1.42407 (Simulation time: 0 hr 41 min 0 sec) 
Heartbeat CPU 0 instructions: 84000000 cycles: 56598271 heartbeat IPC: 1.41228 cumulative IPC: 1.42391 (Simulation time: 0 hr 41 min 30 sec) 
Heartbeat CPU 0 instructions: 85000001 cycles: 57294230 heartbeat IPC: 1.43687 cumulative IPC: 1.42408 (Simulation time: 0 hr 42 min 4 sec) 
Heartbeat CPU 0 instructions: 86000001 cycles: 58003546 heartbeat IPC: 1.40981 cumulative IPC: 1.42389 (Simulation time: 0 hr 42 min 33 sec) 
Heartbeat CPU 0 instructions: 87000001 cycles: 58704205 heartbeat IPC: 1.42723 cumulative IPC: 1.42394 (Simulation time: 0 hr 43 min 5 sec) 
Heartbeat CPU 0 instructions: 88000000 cycles: 59412852 heartbeat IPC: 1.41114 cumulative IPC: 1.42377 (Simulation time: 0 hr 43 min 36 sec) 
Heartbeat CPU 0 instructions: 89000003 cycles: 60109932 heartbeat IPC: 1.43456 cumulative IPC: 1.42391 (Simulation time: 0 hr 44 min 9 sec) 
Heartbeat CPU 0 instructions: 90000001 cycles: 60820554 heartbeat IPC: 1.40722 cumulative IPC: 1.42369 (Simulation time: 0 hr 44 min 39 sec) 
Heartbeat CPU 0 instructions: 91000003 cycles: 61522571 heartbeat IPC: 1.42447 cumulative IPC: 1.4237 (Simulation time: 0 hr 45 min 10 sec) 
Heartbeat CPU 0 instructions: 92000000 cycles: 62235000 heartbeat IPC: 1.40364 cumulative IPC: 1.42346 (Simulation time: 0 hr 45 min 41 sec) 
Heartbeat CPU 0 instructions: 93000001 cycles: 62932247 heartbeat IPC: 1.43421 cumulative IPC: 1.42358 (Simulation time: 0 hr 46 min 10 sec) 
Heartbeat CPU 0 instructions: 94000003 cycles: 63644975 heartbeat IPC: 1.40306 cumulative IPC: 1.42334 (Simulation time: 0 hr 46 min 40 sec) 
Heartbeat CPU 0 instructions: 95000003 cycles: 64346545 heartbeat IPC: 1.42537 cumulative IPC: 1.42336 (Simulation time: 0 hr 47 min 11 sec) 
Heartbeat CPU 0 instructions: 96000000 cycles: 65049766 heartbeat IPC: 1.42202 cumulative IPC: 1.42334 (Simulation time: 0 hr 47 min 41 sec) 
Heartbeat CPU 0 instructions: 97000000 cycles: 65756777 heartbeat IPC: 1.41441 cumulative IPC: 1.42324 (Simulation time: 0 hr 48 min 10 sec) 
Heartbeat CPU 0 instructions: 98000001 cycles: 66449731 heartbeat IPC: 1.4431 cumulative IPC: 1.42346 (Simulation time: 0 hr 48 min 39 sec) 
Heartbeat CPU 0 instructions: 99000001 cycles: 67170416 heartbeat IPC: 1.38757 cumulative IPC: 1.42305 (Simulation time: 0 hr 49 min 7 sec) 
Heartbeat CPU 0 instructions: 100000000 cycles: 67876834 heartbeat IPC: 1.41559 cumulative IPC: 1.42297 (Simulation time: 0 hr 49 min 36 sec) 
Heartbeat CPU 0 instructions: 101000002 cycles: 68594342 heartbeat IPC: 1.39372 cumulative IPC: 1.42264 (Simulation time: 0 hr 50 min 3 sec) 
Heartbeat CPU 0 instructions: 102000003 cycles: 69305403 heartbeat IPC: 1.40635 cumulative IPC: 1.42246 (Simulation time: 0 hr 50 min 30 sec) 
Heartbeat CPU 0 instructions: 103000001 cycles: 70032258 heartbeat IPC: 1.37579 cumulative IPC: 1.42194 (Simulation time: 0 hr 50 min 58 sec) 
Heartbeat CPU 0 instructions: 104000000 cycles: 70744033 heartbeat IPC: 1.40494 cumulative IPC: 1.42176 (Simulation time: 0 hr 51 min 25 sec) 
Heartbeat CPU 0 instructions: 105000003 cycles: 71466280 heartbeat IPC: 1.38457 cumulative IPC: 1.42136 (Simulation time: 0 hr 51 min 50 sec) 
Heartbeat CPU 0 instructions: 106000002 cycles: 72170637 heartbeat IPC: 1.41973 cumulative IPC: 1.42134 (Simulation time: 0 hr 52 min 16 sec) 
Heartbeat CPU 0 instructions: 107000000 cycles: 72886769 heartbeat IPC: 1.39639 cumulative IPC: 1.42108 (Simulation time: 0 hr 52 min 42 sec) 
Heartbeat CPU 0 instructions: 108000000 cycles: 73585807 heartbeat IPC: 1.43054 cumulative IPC: 1.42117 (Simulation time: 0 hr 53 min 8 sec) 
Heartbeat CPU 0 instructions: 109000002 cycles: 74280889 heartbeat IPC: 1.43868 cumulative IPC: 1.42135 (Simulation time: 0 hr 53 min 32 sec) 
Heartbeat CPU 0 instructions: 110000000 cycles: 74990973 heartbeat IPC: 1.40828 cumulative IPC: 1.42122 (Simulation time: 0 hr 53 min 55 sec) 
Finished CPU 0 instructions: 100000003 cycles: 70362263 cummulative IPC: 1.42122 (Simulation time: 0 hr 53 min 55 sec) 

ChampSim completed all CPUs

Region of Interest Statistics

CPU 0 cummulative IPC: 1.42122 instructions: 100000003 cycles: 70362263
LLC TOTAL     ACCESS:     831356  HIT:      63567  MISS:     767789
LLC LOAD      ACCESS:      26393  HIT:      12026  MISS:      14367
LLC RFO       ACCESS:     201262  HIT:       7789  MISS:     193473
LLC PREFETCH  ACCESS:     400978  HIT:      12088  MISS:     388890
LLC WRITEBACK ACCESS:     202723  HIT:      31664  MISS:     171059
Insertion Distribution: 
	LOAD 3440 0 3373 9292 
	RFO 3204 0 9461 192394 
	PREF 0 9034 32850 376196 
	WRITEBACK 0 0 0 172665 
Total Prefetch Downgrades: 5489
