
*** ChampSim Multicore Out-of-Order Simulator ***

Warmup Instructions: 10000000
Simulation Instructions: 100000000
Configuration: 2
Number of CPUs: 1
LLC sets: 2048
LLC ways: 16
Off-chip DRAM Channels: 1 Width: 64-bit Data Rate: 1600 MT/s

CPU 0 runs /datasets/cs240c-wi22-a00-public/data/Assignment2-gz/soplex_217B.trace.gz
CPU 0 L1D next line prefetcher
CPU 0 L2C IP-based stride prefetcher
Initialize SRRIP state
Heartbeat CPU 0 instructions: 1000002 cycles: 441495 heartbeat IPC: 2.26504 cumulative IPC: 2.26504 (Simulation time: 0 hr 0 min 38 sec) 
Heartbeat CPU 0 instructions: 2000003 cycles: 800539 heartbeat IPC: 2.78518 cumulative IPC: 2.49832 (Simulation time: 0 hr 1 min 7 sec) 
Heartbeat CPU 0 instructions: 3000002 cycles: 1245555 heartbeat IPC: 2.24711 cumulative IPC: 2.40857 (Simulation time: 0 hr 1 min 37 sec) 
Heartbeat CPU 0 instructions: 4000000 cycles: 1673322 heartbeat IPC: 2.33772 cumulative IPC: 2.39045 (Simulation time: 0 hr 2 min 14 sec) 
Heartbeat CPU 0 instructions: 5000001 cycles: 2057371 heartbeat IPC: 2.60384 cumulative IPC: 2.43029 (Simulation time: 0 hr 2 min 40 sec) 
Heartbeat CPU 0 instructions: 6000000 cycles: 2431800 heartbeat IPC: 2.67073 cumulative IPC: 2.46731 (Simulation time: 0 hr 3 min 6 sec) 
Heartbeat CPU 0 instructions: 7000003 cycles: 2962025 heartbeat IPC: 1.886 cumulative IPC: 2.36325 (Simulation time: 0 hr 3 min 34 sec) 
Heartbeat CPU 0 instructions: 8000000 cycles: 3409748 heartbeat IPC: 2.23352 cumulative IPC: 2.34621 (Simulation time: 0 hr 4 min 8 sec) 
Heartbeat CPU 0 instructions: 9000001 cycles: 3834143 heartbeat IPC: 2.3563 cumulative IPC: 2.34733 (Simulation time: 0 hr 4 min 37 sec) 
Heartbeat CPU 0 instructions: 10000000 cycles: 4246454 heartbeat IPC: 2.42535 cumulative IPC: 2.35491 (Simulation time: 0 hr 5 min 8 sec) 

Warmup complete CPU 0 instructions: 10000004 cycles: 4246455 (Simulation time: 0 hr 5 min 8 sec) 

Heartbeat CPU 0 instructions: 11000002 cycles: 7892512 heartbeat IPC: 0.274269 cumulative IPC: 0.274268 (Simulation time: 0 hr 5 min 53 sec) 
Heartbeat CPU 0 instructions: 12000000 cycles: 10394921 heartbeat IPC: 0.399614 cumulative IPC: 0.325284 (Simulation time: 0 hr 6 min 29 sec) 
Heartbeat CPU 0 instructions: 13000000 cycles: 11677793 heartbeat IPC: 0.779501 cumulative IPC: 0.403695 (Simulation time: 0 hr 6 min 54 sec) 
Heartbeat CPU 0 instructions: 14000000 cycles: 14307212 heartbeat IPC: 0.380312 cumulative IPC: 0.397584 (Simulation time: 0 hr 7 min 28 sec) 
Heartbeat CPU 0 instructions: 15000000 cycles: 17027359 heartbeat IPC: 0.367627 cumulative IPC: 0.391208 (Simulation time: 0 hr 8 min 8 sec) 
Heartbeat CPU 0 instructions: 16000000 cycles: 20692353 heartbeat IPC: 0.272852 cumulative IPC: 0.364832 (Simulation time: 0 hr 8 min 57 sec) 
Heartbeat CPU 0 instructions: 17000002 cycles: 22897922 heartbeat IPC: 0.453399 cumulative IPC: 0.375306 (Simulation time: 0 hr 9 min 32 sec) 
Heartbeat CPU 0 instructions: 18000002 cycles: 25447544 heartbeat IPC: 0.392215 cumulative IPC: 0.377339 (Simulation time: 0 hr 10 min 11 sec) 
Heartbeat CPU 0 instructions: 19000000 cycles: 28847594 heartbeat IPC: 0.294113 cumulative IPC: 0.365837 (Simulation time: 0 hr 10 min 51 sec) 
Heartbeat CPU 0 instructions: 20000000 cycles: 30162443 heartbeat IPC: 0.760544 cumulative IPC: 0.385862 (Simulation time: 0 hr 11 min 16 sec) 
Heartbeat CPU 0 instructions: 21000000 cycles: 31569694 heartbeat IPC: 0.710605 cumulative IPC: 0.402588 (Simulation time: 0 hr 11 min 43 sec) 
Heartbeat CPU 0 instructions: 22000001 cycles: 34779117 heartbeat IPC: 0.311583 cumulative IPC: 0.393022 (Simulation time: 0 hr 12 min 23 sec) 
Heartbeat CPU 0 instructions: 23000003 cycles: 38050776 heartbeat IPC: 0.305656 cumulative IPC: 0.384566 (Simulation time: 0 hr 13 min 7 sec) 
Heartbeat CPU 0 instructions: 24000000 cycles: 41446959 heartbeat IPC: 0.294447 cumulative IPC: 0.376339 (Simulation time: 0 hr 13 min 53 sec) 
Heartbeat CPU 0 instructions: 25000001 cycles: 42889064 heartbeat IPC: 0.693431 cumulative IPC: 0.388172 (Simulation time: 0 hr 14 min 32 sec) 
Heartbeat CPU 0 instructions: 26000003 cycles: 46665666 heartbeat IPC: 0.264789 cumulative IPC: 0.377188 (Simulation time: 0 hr 15 min 19 sec) 
Heartbeat CPU 0 instructions: 27000002 cycles: 49013754 heartbeat IPC: 0.425878 cumulative IPC: 0.379741 (Simulation time: 0 hr 15 min 55 sec) 
Heartbeat CPU 0 instructions: 28000000 cycles: 50294187 heartbeat IPC: 0.780984 cumulative IPC: 0.390899 (Simulation time: 0 hr 16 min 20 sec) 
Heartbeat CPU 0 instructions: 29000002 cycles: 52959389 heartbeat IPC: 0.375207 cumulative IPC: 0.39004 (Simulation time: 0 hr 16 min 53 sec) 
Heartbeat CPU 0 instructions: 30000002 cycles: 55733350 heartbeat IPC: 0.360495 cumulative IPC: 0.388448 (Simulation time: 0 hr 17 min 36 sec) 
Heartbeat CPU 0 instructions: 31000000 cycles: 58895762 heartbeat IPC: 0.316214 cumulative IPC: 0.384268 (Simulation time: 0 hr 18 min 17 sec) 
Heartbeat CPU 0 instructions: 32000000 cycles: 60670444 heartbeat IPC: 0.563481 cumulative IPC: 0.389905 (Simulation time: 0 hr 18 min 54 sec) 
Heartbeat CPU 0 instructions: 33000001 cycles: 64097570 heartbeat IPC: 0.29179 cumulative IPC: 0.384287 (Simulation time: 0 hr 19 min 42 sec) 
Heartbeat CPU 0 instructions: 34000000 cycles: 66840018 heartbeat IPC: 0.364637 cumulative IPC: 0.383426 (Simulation time: 0 hr 20 min 16 sec) 
Heartbeat CPU 0 instructions: 35000002 cycles: 68133451 heartbeat IPC: 0.773138 cumulative IPC: 0.391316 (Simulation time: 0 hr 20 min 38 sec) 
Heartbeat CPU 0 instructions: 36000000 cycles: 70339601 heartbeat IPC: 0.453277 cumulative IPC: 0.393384 (Simulation time: 0 hr 21 min 6 sec) 
Heartbeat CPU 0 instructions: 37000002 cycles: 72997898 heartbeat IPC: 0.376181 cumulative IPC: 0.392719 (Simulation time: 0 hr 21 min 40 sec) 
Heartbeat CPU 0 instructions: 38000000 cycles: 76373861 heartbeat IPC: 0.296211 cumulative IPC: 0.388202 (Simulation time: 0 hr 22 min 20 sec) 
Heartbeat CPU 0 instructions: 39000001 cycles: 78437955 heartbeat IPC: 0.484475 cumulative IPC: 0.39088 (Simulation time: 0 hr 22 min 51 sec) 
Heartbeat CPU 0 instructions: 40000000 cycles: 81600957 heartbeat IPC: 0.316155 cumulative IPC: 0.387825 (Simulation time: 0 hr 23 min 30 sec) 
Heartbeat CPU 0 instructions: 41000000 cycles: 84605216 heartbeat IPC: 0.332861 cumulative IPC: 0.38577 (Simulation time: 0 hr 24 min 5 sec) 
Heartbeat CPU 0 instructions: 42000002 cycles: 85922705 heartbeat IPC: 0.759021 cumulative IPC: 0.391791 (Simulation time: 0 hr 24 min 27 sec) 
Heartbeat CPU 0 instructions: 43000001 cycles: 87696898 heartbeat IPC: 0.563636 cumulative IPC: 0.395444 (Simulation time: 0 hr 24 min 54 sec) 
Heartbeat CPU 0 instructions: 44000000 cycles: 90508044 heartbeat IPC: 0.355726 cumulative IPC: 0.39415 (Simulation time: 0 hr 25 min 30 sec) 
Heartbeat CPU 0 instructions: 45000003 cycles: 94010567 heartbeat IPC: 0.285509 cumulative IPC: 0.389911 (Simulation time: 0 hr 26 min 13 sec) 
Heartbeat CPU 0 instructions: 46000000 cycles: 96952183 heartbeat IPC: 0.339948 cumulative IPC: 0.388325 (Simulation time: 0 hr 26 min 55 sec) 
Heartbeat CPU 0 instructions: 47000001 cycles: 98577150 heartbeat IPC: 0.615398 cumulative IPC: 0.392237 (Simulation time: 0 hr 27 min 28 sec) 
Heartbeat CPU 0 instructions: 48000000 cycles: 102124486 heartbeat IPC: 0.281901 cumulative IPC: 0.388238 (Simulation time: 0 hr 28 min 12 sec) 
Heartbeat CPU 0 instructions: 49000000 cycles: 104679784 heartbeat IPC: 0.391344 cumulative IPC: 0.388317 (Simulation time: 0 hr 28 min 44 sec) 
Heartbeat CPU 0 instructions: 50000001 cycles: 105974189 heartbeat IPC: 0.772556 cumulative IPC: 0.393206 (Simulation time: 0 hr 29 min 8 sec) 
Heartbeat CPU 0 instructions: 51000000 cycles: 108478018 heartbeat IPC: 0.399388 cumulative IPC: 0.393355 (Simulation time: 0 hr 29 min 39 sec) 
Heartbeat CPU 0 instructions: 52000000 cycles: 111203360 heartbeat IPC: 0.366926 cumulative IPC: 0.392681 (Simulation time: 0 hr 30 min 18 sec) 
Heartbeat CPU 0 instructions: 53000000 cycles: 114411487 heartbeat IPC: 0.311708 cumulative IPC: 0.390323 (Simulation time: 0 hr 31 min 1 sec) 
Heartbeat CPU 0 instructions: 54000000 cycles: 116268427 heartbeat IPC: 0.53852 cumulative IPC: 0.39278 (Simulation time: 0 hr 31 min 33 sec) 
Heartbeat CPU 0 instructions: 55000000 cycles: 119598874 heartbeat IPC: 0.30026 cumulative IPC: 0.390109 (Simulation time: 0 hr 32 min 16 sec) 
Heartbeat CPU 0 instructions: 56000000 cycles: 122479790 heartbeat IPC: 0.347112 cumulative IPC: 0.389061 (Simulation time: 0 hr 32 min 52 sec) 
Heartbeat CPU 0 instructions: 57000003 cycles: 123793292 heartbeat IPC: 0.761326 cumulative IPC: 0.393151 (Simulation time: 0 hr 33 min 16 sec) 
Heartbeat CPU 0 instructions: 58000000 cycles: 125943465 heartbeat IPC: 0.465077 cumulative IPC: 0.394422 (Simulation time: 0 hr 33 min 44 sec) 
Heartbeat CPU 0 instructions: 59000003 cycles: 128584736 heartbeat IPC: 0.378607 cumulative IPC: 0.394086 (Simulation time: 0 hr 34 min 20 sec) 
Heartbeat CPU 0 instructions: 60000000 cycles: 131917788 heartbeat IPC: 0.300024 cumulative IPC: 0.391631 (Simulation time: 0 hr 35 min 3 sec) 
Heartbeat CPU 0 instructions: 61000000 cycles: 134178283 heartbeat IPC: 0.442381 cumulative IPC: 0.392513 (Simulation time: 0 hr 35 min 36 sec) 
Heartbeat CPU 0 instructions: 62000000 cycles: 136945791 heartbeat IPC: 0.361336 cumulative IPC: 0.391863 (Simulation time: 0 hr 36 min 17 sec) 
Heartbeat CPU 0 instructions: 63000001 cycles: 140321569 heartbeat IPC: 0.296228 cumulative IPC: 0.389491 (Simulation time: 0 hr 36 min 59 sec) 
Heartbeat CPU 0 instructions: 64000000 cycles: 141638507 heartbeat IPC: 0.759336 cumulative IPC: 0.393036 (Simulation time: 0 hr 37 min 22 sec) 
Heartbeat CPU 0 instructions: 65000000 cycles: 143124860 heartbeat IPC: 0.672788 cumulative IPC: 0.39603 (Simulation time: 0 hr 37 min 52 sec) 
Heartbeat CPU 0 instructions: 66000002 cycles: 146262230 heartbeat IPC: 0.318739 cumulative IPC: 0.394322 (Simulation time: 0 hr 38 min 31 sec) 
Heartbeat CPU 0 instructions: 67000000 cycles: 149441099 heartbeat IPC: 0.314577 cumulative IPC: 0.392576 (Simulation time: 0 hr 39 min 14 sec) 
Heartbeat CPU 0 instructions: 68000000 cycles: 155498468 heartbeat IPC: 0.165088 cumulative IPC: 0.383466 (Simulation time: 0 hr 40 min 4 sec) 
Heartbeat CPU 0 instructions: 69000001 cycles: 159808365 heartbeat IPC: 0.232024 cumulative IPC: 0.37927 (Simulation time: 0 hr 40 min 49 sec) 
Heartbeat CPU 0 instructions: 70000000 cycles: 163836815 heartbeat IPC: 0.248234 cumulative IPC: 0.375963 (Simulation time: 0 hr 41 min 39 sec) 
Heartbeat CPU 0 instructions: 71000002 cycles: 168199717 heartbeat IPC: 0.229206 cumulative IPC: 0.372057 (Simulation time: 0 hr 42 min 28 sec) 
Heartbeat CPU 0 instructions: 72000000 cycles: 171514162 heartbeat IPC: 0.301709 cumulative IPC: 0.370663 (Simulation time: 0 hr 43 min 8 sec) 
Heartbeat CPU 0 instructions: 73000000 cycles: 174812127 heartbeat IPC: 0.303217 cumulative IPC: 0.369359 (Simulation time: 0 hr 43 min 48 sec) 
Heartbeat CPU 0 instructions: 74000000 cycles: 178388708 heartbeat IPC: 0.279597 cumulative IPC: 0.367516 (Simulation time: 0 hr 44 min 25 sec) 
Heartbeat CPU 0 instructions: 75000002 cycles: 182060474 heartbeat IPC: 0.272349 cumulative IPC: 0.36555 (Simulation time: 0 hr 45 min 7 sec) 
Heartbeat CPU 0 instructions: 76000000 cycles: 184599524 heartbeat IPC: 0.393847 cumulative IPC: 0.365949 (Simulation time: 0 hr 45 min 43 sec) 
Heartbeat CPU 0 instructions: 77000000 cycles: 188114961 heartbeat IPC: 0.28446 cumulative IPC: 0.364391 (Simulation time: 0 hr 46 min 25 sec) 
Heartbeat CPU 0 instructions: 78000002 cycles: 190283286 heartbeat IPC: 0.461186 cumulative IPC: 0.365519 (Simulation time: 0 hr 47 min 4 sec) 
Heartbeat CPU 0 instructions: 79000002 cycles: 192180423 heartbeat IPC: 0.52711 cumulative IPC: 0.36715 (Simulation time: 0 hr 47 min 44 sec) 
Heartbeat CPU 0 instructions: 80000000 cycles: 193392749 heartbeat IPC: 0.824859 cumulative IPC: 0.370084 (Simulation time: 0 hr 48 min 14 sec) 
Heartbeat CPU 0 instructions: 81000003 cycles: 195630049 heartbeat IPC: 0.446969 cumulative IPC: 0.370983 (Simulation time: 0 hr 48 min 49 sec) 
Heartbeat CPU 0 instructions: 82000001 cycles: 198437417 heartbeat IPC: 0.356205 cumulative IPC: 0.370769 (Simulation time: 0 hr 49 min 27 sec) 
Heartbeat CPU 0 instructions: 83000002 cycles: 200914259 heartbeat IPC: 0.40374 cumulative IPC: 0.371184 (Simulation time: 0 hr 50 min 3 sec) 
Heartbeat CPU 0 instructions: 84000000 cycles: 203151925 heartbeat IPC: 0.446893 cumulative IPC: 0.372036 (Simulation time: 0 hr 50 min 35 sec) 
Heartbeat CPU 0 instructions: 85000000 cycles: 204699523 heartbeat IPC: 0.646163 cumulative IPC: 0.374152 (Simulation time: 0 hr 51 min 7 sec) 
Heartbeat CPU 0 instructions: 86000001 cycles: 208350542 heartbeat IPC: 0.273896 cumulative IPC: 0.372359 (Simulation time: 0 hr 51 min 46 sec) 
Heartbeat CPU 0 instructions: 87000000 cycles: 210895305 heartbeat IPC: 0.392963 cumulative IPC: 0.372613 (Simulation time: 0 hr 52 min 17 sec) 
Heartbeat CPU 0 instructions: 88000000 cycles: 212182067 heartbeat IPC: 0.777144 cumulative IPC: 0.375116 (Simulation time: 0 hr 52 min 38 sec) 
Heartbeat CPU 0 instructions: 89000003 cycles: 214775539 heartbeat IPC: 0.385585 cumulative IPC: 0.375245 (Simulation time: 0 hr 53 min 6 sec) 
Heartbeat CPU 0 instructions: 90000002 cycles: 217534186 heartbeat IPC: 0.362496 cumulative IPC: 0.37508 (Simulation time: 0 hr 53 min 38 sec) 
Heartbeat CPU 0 instructions: 91000001 cycles: 220801853 heartbeat IPC: 0.306028 cumulative IPC: 0.374038 (Simulation time: 0 hr 54 min 9 sec) 
Heartbeat CPU 0 instructions: 92000000 cycles: 222640604 heartbeat IPC: 0.543847 cumulative IPC: 0.375468 (Simulation time: 0 hr 54 min 32 sec) 
Heartbeat CPU 0 instructions: 93000000 cycles: 225990899 heartbeat IPC: 0.298481 cumulative IPC: 0.374305 (Simulation time: 0 hr 55 min 3 sec) 
Heartbeat CPU 0 instructions: 94000001 cycles: 228789239 heartbeat IPC: 0.357355 cumulative IPC: 0.374094 (Simulation time: 0 hr 55 min 25 sec) 
Heartbeat CPU 0 instructions: 95000003 cycles: 230116712 heartbeat IPC: 0.753312 cumulative IPC: 0.376322 (Simulation time: 0 hr 55 min 39 sec) 
Heartbeat CPU 0 instructions: 96000000 cycles: 232342062 heartbeat IPC: 0.449366 cumulative IPC: 0.377035 (Simulation time: 0 hr 56 min 0 sec) 
Heartbeat CPU 0 instructions: 97000002 cycles: 234850076 heartbeat IPC: 0.398723 cumulative IPC: 0.377271 (Simulation time: 0 hr 56 min 23 sec) 
Heartbeat CPU 0 instructions: 98000003 cycles: 238859627 heartbeat IPC: 0.249405 cumulative IPC: 0.375086 (Simulation time: 0 hr 56 min 53 sec) 
Heartbeat CPU 0 instructions: 99000000 cycles: 241707834 heartbeat IPC: 0.351097 cumulative IPC: 0.374798 (Simulation time: 0 hr 57 min 16 sec) 
Heartbeat CPU 0 instructions: 100000000 cycles: 243590919 heartbeat IPC: 0.531043 cumulative IPC: 0.376027 (Simulation time: 0 hr 57 min 37 sec) 
Heartbeat CPU 0 instructions: 101000001 cycles: 247428823 heartbeat IPC: 0.260559 cumulative IPC: 0.374205 (Simulation time: 0 hr 58 min 3 sec) 
Heartbeat CPU 0 instructions: 102000000 cycles: 249034910 heartbeat IPC: 0.622631 cumulative IPC: 0.375835 (Simulation time: 0 hr 58 min 18 sec) 
Heartbeat CPU 0 instructions: 103000001 cycles: 250295112 heartbeat IPC: 0.793524 cumulative IPC: 0.377974 (Simulation time: 0 hr 58 min 31 sec) 
Heartbeat CPU 0 instructions: 104000000 cycles: 253562353 heartbeat IPC: 0.306068 cumulative IPC: 0.377032 (Simulation time: 0 hr 58 min 51 sec) 
Heartbeat CPU 0 instructions: 105000003 cycles: 256586116 heartbeat IPC: 0.330715 cumulative IPC: 0.376477 (Simulation time: 0 hr 59 min 13 sec) 
Heartbeat CPU 0 instructions: 106000002 cycles: 259282479 heartbeat IPC: 0.37087 cumulative IPC: 0.376417 (Simulation time: 0 hr 59 min 33 sec) 
Heartbeat CPU 0 instructions: 107000000 cycles: 260988911 heartbeat IPC: 0.586017 cumulative IPC: 0.377811 (Simulation time: 0 hr 59 min 53 sec) 
Heartbeat CPU 0 instructions: 108000000 cycles: 264851019 heartbeat IPC: 0.258926 cumulative IPC: 0.376049 (Simulation time: 1 hr 0 min 16 sec) 
Heartbeat CPU 0 instructions: 109000000 cycles: 266757793 heartbeat IPC: 0.524446 cumulative IPC: 0.377127 (Simulation time: 1 hr 0 min 30 sec) 
Heartbeat CPU 0 instructions: 110000002 cycles: 268012544 heartbeat IPC: 0.796972 cumulative IPC: 0.379124 (Simulation time: 1 hr 0 min 43 sec) 
Finished CPU 0 instructions: 100000000 cycles: 263766093 cummulative IPC: 0.379124 (Simulation time: 1 hr 0 min 43 sec) 

ChampSim completed all CPUs

Region of Interest Statistics

CPU 0 cummulative IPC: 0.379124 instructions: 100000000 cycles: 263766093
LLC TOTAL     ACCESS:    8713572  HIT:    4789572  MISS:    3924000
LLC LOAD      ACCESS:    2236755  HIT:    1097759  MISS:    1138996
LLC RFO       ACCESS:     764933  HIT:     278989  MISS:     485944
LLC PREFETCH  ACCESS:    3551376  HIT:    1637788  MISS:    1913588
LLC WRITEBACK ACCESS:    2160508  HIT:    1775036  MISS:     385472
Insertion Distribution: 
	LOAD 376358 0 119651 747104 
	RFO 215413 0 89540 233617 
	PREF 0 189345 315332 1647128 
	WRITEBACK 0 0 0 436150 
Total Prefetch Downgrades: 176779
