
*** ChampSim Multicore Out-of-Order Simulator ***

Warmup Instructions: 10000000
Simulation Instructions: 100000000
Configuration: 2
Number of CPUs: 1
LLC sets: 2048
LLC ways: 16
Off-chip DRAM Channels: 1 Width: 64-bit Data Rate: 1600 MT/s

CPU 0 runs /datasets/cs240c-wi22-a00-public/data/Assignment2-gz/calculix_2655B.trace.gz
CPU 0 L1D next line prefetcher
CPU 0 L2C IP-based stride prefetcher
Initialize SRRIP state
Heartbeat CPU 0 instructions: 1000003 cycles: 392383 heartbeat IPC: 2.54854 cumulative IPC: 2.54854 (Simulation time: 0 hr 0 min 24 sec) 
Heartbeat CPU 0 instructions: 2000001 cycles: 785148 heartbeat IPC: 2.54605 cumulative IPC: 2.54729 (Simulation time: 0 hr 0 min 47 sec) 
Heartbeat CPU 0 instructions: 3000002 cycles: 1177684 heartbeat IPC: 2.54754 cumulative IPC: 2.54737 (Simulation time: 0 hr 1 min 5 sec) 
Heartbeat CPU 0 instructions: 4000000 cycles: 1569447 heartbeat IPC: 2.55256 cumulative IPC: 2.54867 (Simulation time: 0 hr 1 min 25 sec) 
Heartbeat CPU 0 instructions: 5000003 cycles: 1961684 heartbeat IPC: 2.54949 cumulative IPC: 2.54883 (Simulation time: 0 hr 1 min 44 sec) 
Heartbeat CPU 0 instructions: 6000003 cycles: 2353797 heartbeat IPC: 2.55029 cumulative IPC: 2.54907 (Simulation time: 0 hr 2 min 5 sec) 
Heartbeat CPU 0 instructions: 7000002 cycles: 2745952 heartbeat IPC: 2.55001 cumulative IPC: 2.54921 (Simulation time: 0 hr 2 min 25 sec) 
Heartbeat CPU 0 instructions: 8000000 cycles: 3137922 heartbeat IPC: 2.55121 cumulative IPC: 2.54946 (Simulation time: 0 hr 2 min 48 sec) 
Heartbeat CPU 0 instructions: 9000001 cycles: 3530092 heartbeat IPC: 2.54992 cumulative IPC: 2.54951 (Simulation time: 0 hr 3 min 9 sec) 
Heartbeat CPU 0 instructions: 10000000 cycles: 3921565 heartbeat IPC: 2.55445 cumulative IPC: 2.55 (Simulation time: 0 hr 3 min 31 sec) 

Warmup complete CPU 0 instructions: 10000004 cycles: 3921566 (Simulation time: 0 hr 3 min 31 sec) 

Heartbeat CPU 0 instructions: 11000001 cycles: 4355778 heartbeat IPC: 2.30302 cumulative IPC: 2.30302 (Simulation time: 0 hr 3 min 54 sec) 
Heartbeat CPU 0 instructions: 12000000 cycles: 4785167 heartbeat IPC: 2.32889 cumulative IPC: 2.31588 (Simulation time: 0 hr 4 min 19 sec) 
Heartbeat CPU 0 instructions: 13000000 cycles: 5213278 heartbeat IPC: 2.33584 cumulative IPC: 2.3225 (Simulation time: 0 hr 4 min 43 sec) 
Heartbeat CPU 0 instructions: 14000002 cycles: 5640674 heartbeat IPC: 2.33976 cumulative IPC: 2.32679 (Simulation time: 0 hr 5 min 9 sec) 
Heartbeat CPU 0 instructions: 15000001 cycles: 6064363 heartbeat IPC: 2.36022 cumulative IPC: 2.3334 (Simulation time: 0 hr 5 min 33 sec) 
Heartbeat CPU 0 instructions: 16000000 cycles: 6650039 heartbeat IPC: 1.70743 cumulative IPC: 2.19903 (Simulation time: 0 hr 5 min 57 sec) 
Heartbeat CPU 0 instructions: 17000000 cycles: 7083117 heartbeat IPC: 2.30905 cumulative IPC: 2.2141 (Simulation time: 0 hr 6 min 23 sec) 
Heartbeat CPU 0 instructions: 18000000 cycles: 7512318 heartbeat IPC: 2.32991 cumulative IPC: 2.22794 (Simulation time: 0 hr 6 min 48 sec) 
Heartbeat CPU 0 instructions: 19000000 cycles: 7940447 heartbeat IPC: 2.33574 cumulative IPC: 2.23943 (Simulation time: 0 hr 7 min 14 sec) 
Heartbeat CPU 0 instructions: 20000000 cycles: 8367889 heartbeat IPC: 2.3395 cumulative IPC: 2.24905 (Simulation time: 0 hr 7 min 41 sec) 
Heartbeat CPU 0 instructions: 21000002 cycles: 8794250 heartbeat IPC: 2.34543 cumulative IPC: 2.25748 (Simulation time: 0 hr 8 min 7 sec) 
Heartbeat CPU 0 instructions: 22000001 cycles: 9383759 heartbeat IPC: 1.69633 cumulative IPC: 2.19692 (Simulation time: 0 hr 8 min 32 sec) 
Heartbeat CPU 0 instructions: 23000000 cycles: 9809360 heartbeat IPC: 2.34962 cumulative IPC: 2.20796 (Simulation time: 0 hr 8 min 57 sec) 
Heartbeat CPU 0 instructions: 24000000 cycles: 10234233 heartbeat IPC: 2.35364 cumulative IPC: 2.21776 (Simulation time: 0 hr 9 min 27 sec) 
Heartbeat CPU 0 instructions: 25000003 cycles: 10659484 heartbeat IPC: 2.35156 cumulative IPC: 2.22621 (Simulation time: 0 hr 9 min 53 sec) 
Heartbeat CPU 0 instructions: 26000003 cycles: 11083488 heartbeat IPC: 2.35847 cumulative IPC: 2.23404 (Simulation time: 0 hr 10 min 18 sec) 
Heartbeat CPU 0 instructions: 27000000 cycles: 11535761 heartbeat IPC: 2.21105 cumulative IPC: 2.23267 (Simulation time: 0 hr 10 min 42 sec) 
Heartbeat CPU 0 instructions: 28000000 cycles: 12113216 heartbeat IPC: 1.73174 cumulative IPC: 2.19736 (Simulation time: 0 hr 11 min 8 sec) 
Heartbeat CPU 0 instructions: 29000003 cycles: 12543541 heartbeat IPC: 2.32383 cumulative IPC: 2.20367 (Simulation time: 0 hr 11 min 32 sec) 
Heartbeat CPU 0 instructions: 30000003 cycles: 12971717 heartbeat IPC: 2.33549 cumulative IPC: 2.20991 (Simulation time: 0 hr 11 min 58 sec) 
Heartbeat CPU 0 instructions: 31000002 cycles: 13398619 heartbeat IPC: 2.34246 cumulative IPC: 2.21588 (Simulation time: 0 hr 12 min 22 sec) 
Heartbeat CPU 0 instructions: 32000000 cycles: 13824858 heartbeat IPC: 2.3461 cumulative IPC: 2.22148 (Simulation time: 0 hr 12 min 48 sec) 
Heartbeat CPU 0 instructions: 33000003 cycles: 14318462 heartbeat IPC: 2.02592 cumulative IPC: 2.2122 (Simulation time: 0 hr 13 min 14 sec) 
Heartbeat CPU 0 instructions: 34000002 cycles: 14912464 heartbeat IPC: 1.68349 cumulative IPC: 2.18362 (Simulation time: 0 hr 13 min 40 sec) 
Heartbeat CPU 0 instructions: 35000001 cycles: 15407190 heartbeat IPC: 2.02132 cumulative IPC: 2.17663 (Simulation time: 0 hr 14 min 6 sec) 
Heartbeat CPU 0 instructions: 36000000 cycles: 15871501 heartbeat IPC: 2.15373 cumulative IPC: 2.17574 (Simulation time: 0 hr 14 min 30 sec) 
Heartbeat CPU 0 instructions: 37000002 cycles: 16327206 heartbeat IPC: 2.19441 cumulative IPC: 2.17643 (Simulation time: 0 hr 14 min 54 sec) 
Heartbeat CPU 0 instructions: 38000002 cycles: 16766829 heartbeat IPC: 2.27468 cumulative IPC: 2.17979 (Simulation time: 0 hr 15 min 18 sec) 
Heartbeat CPU 0 instructions: 39000002 cycles: 17346958 heartbeat IPC: 1.72375 cumulative IPC: 2.16009 (Simulation time: 0 hr 15 min 45 sec) 
Heartbeat CPU 0 instructions: 40000000 cycles: 17838098 heartbeat IPC: 2.03608 cumulative IPC: 2.15571 (Simulation time: 0 hr 16 min 10 sec) 
Heartbeat CPU 0 instructions: 41000003 cycles: 18327992 heartbeat IPC: 2.04126 cumulative IPC: 2.15182 (Simulation time: 0 hr 16 min 34 sec) 
Heartbeat CPU 0 instructions: 42000001 cycles: 18843430 heartbeat IPC: 1.94009 cumulative IPC: 2.1445 (Simulation time: 0 hr 16 min 58 sec) 
Heartbeat CPU 0 instructions: 43000001 cycles: 19371167 heartbeat IPC: 1.89488 cumulative IPC: 2.13598 (Simulation time: 0 hr 17 min 23 sec) 
Heartbeat CPU 0 instructions: 44000000 cycles: 20085489 heartbeat IPC: 1.39993 cumulative IPC: 2.10345 (Simulation time: 0 hr 17 min 51 sec) 
Heartbeat CPU 0 instructions: 45000002 cycles: 20547551 heartbeat IPC: 2.16422 cumulative IPC: 2.10514 (Simulation time: 0 hr 18 min 17 sec) 
Heartbeat CPU 0 instructions: 46000003 cycles: 21059902 heartbeat IPC: 1.95179 cumulative IPC: 2.10055 (Simulation time: 0 hr 18 min 41 sec) 
Heartbeat CPU 0 instructions: 47000000 cycles: 21533565 heartbeat IPC: 2.1112 cumulative IPC: 2.10084 (Simulation time: 0 hr 19 min 6 sec) 
Heartbeat CPU 0 instructions: 48000000 cycles: 22046065 heartbeat IPC: 1.95122 cumulative IPC: 2.09661 (Simulation time: 0 hr 19 min 35 sec) 
Heartbeat CPU 0 instructions: 49000000 cycles: 22489314 heartbeat IPC: 2.25607 cumulative IPC: 2.10042 (Simulation time: 0 hr 19 min 58 sec) 
Heartbeat CPU 0 instructions: 50000002 cycles: 22971444 heartbeat IPC: 2.07413 cumulative IPC: 2.09975 (Simulation time: 0 hr 20 min 23 sec) 
Heartbeat CPU 0 instructions: 51000001 cycles: 23450319 heartbeat IPC: 2.08823 cumulative IPC: 2.09947 (Simulation time: 0 hr 20 min 50 sec) 
Heartbeat CPU 0 instructions: 52000000 cycles: 23885644 heartbeat IPC: 2.29713 cumulative IPC: 2.10378 (Simulation time: 0 hr 21 min 15 sec) 
Heartbeat CPU 0 instructions: 53000002 cycles: 24415823 heartbeat IPC: 1.88616 cumulative IPC: 2.09815 (Simulation time: 0 hr 21 min 39 sec) 
Heartbeat CPU 0 instructions: 54000002 cycles: 25211300 heartbeat IPC: 1.25711 cumulative IPC: 2.06672 (Simulation time: 0 hr 22 min 6 sec) 
Heartbeat CPU 0 instructions: 55000003 cycles: 25733200 heartbeat IPC: 1.91608 cumulative IPC: 2.06312 (Simulation time: 0 hr 22 min 32 sec) 
Heartbeat CPU 0 instructions: 56000000 cycles: 26203631 heartbeat IPC: 2.1257 cumulative IPC: 2.06444 (Simulation time: 0 hr 22 min 56 sec) 
Heartbeat CPU 0 instructions: 57000000 cycles: 26728973 heartbeat IPC: 1.90352 cumulative IPC: 2.06073 (Simulation time: 0 hr 23 min 20 sec) 
Heartbeat CPU 0 instructions: 58000003 cycles: 27173724 heartbeat IPC: 2.24846 cumulative IPC: 2.06432 (Simulation time: 0 hr 23 min 44 sec) 
Heartbeat CPU 0 instructions: 59000001 cycles: 27693516 heartbeat IPC: 1.92384 cumulative IPC: 2.06125 (Simulation time: 0 hr 24 min 7 sec) 
Heartbeat CPU 0 instructions: 60000000 cycles: 28167024 heartbeat IPC: 2.11189 cumulative IPC: 2.06224 (Simulation time: 0 hr 24 min 33 sec) 
Heartbeat CPU 0 instructions: 61000002 cycles: 28670508 heartbeat IPC: 1.98616 cumulative IPC: 2.06069 (Simulation time: 0 hr 24 min 57 sec) 
Heartbeat CPU 0 instructions: 62000003 cycles: 29188703 heartbeat IPC: 1.92978 cumulative IPC: 2.05801 (Simulation time: 0 hr 25 min 22 sec) 
Heartbeat CPU 0 instructions: 63000003 cycles: 29865195 heartbeat IPC: 1.47821 cumulative IPC: 2.04289 (Simulation time: 0 hr 25 min 49 sec) 
Heartbeat CPU 0 instructions: 64000000 cycles: 30354967 heartbeat IPC: 2.04176 cumulative IPC: 2.04287 (Simulation time: 0 hr 26 min 16 sec) 
Heartbeat CPU 0 instructions: 65000001 cycles: 30882310 heartbeat IPC: 1.8963 cumulative IPC: 2.04 (Simulation time: 0 hr 26 min 43 sec) 
Heartbeat CPU 0 instructions: 66000001 cycles: 31536451 heartbeat IPC: 1.52872 cumulative IPC: 2.02789 (Simulation time: 0 hr 27 min 8 sec) 
Heartbeat CPU 0 instructions: 67000003 cycles: 32109154 heartbeat IPC: 1.74611 cumulative IPC: 2.02217 (Simulation time: 0 hr 27 min 33 sec) 
Heartbeat CPU 0 instructions: 68000000 cycles: 32668990 heartbeat IPC: 1.78623 cumulative IPC: 2.01757 (Simulation time: 0 hr 28 min 4 sec) 
Heartbeat CPU 0 instructions: 69000001 cycles: 33221948 heartbeat IPC: 1.80846 cumulative IPC: 2.01363 (Simulation time: 0 hr 28 min 27 sec) 
Heartbeat CPU 0 instructions: 70000002 cycles: 33784015 heartbeat IPC: 1.77915 cumulative IPC: 2.00921 (Simulation time: 0 hr 28 min 53 sec) 
Heartbeat CPU 0 instructions: 71000003 cycles: 34343314 heartbeat IPC: 1.78795 cumulative IPC: 2.00514 (Simulation time: 0 hr 29 min 20 sec) 
Heartbeat CPU 0 instructions: 72000000 cycles: 34896879 heartbeat IPC: 1.80647 cumulative IPC: 2.00159 (Simulation time: 0 hr 29 min 47 sec) 
Heartbeat CPU 0 instructions: 73000000 cycles: 35449153 heartbeat IPC: 1.8107 cumulative IPC: 1.99825 (Simulation time: 0 hr 30 min 12 sec) 
Heartbeat CPU 0 instructions: 74000000 cycles: 35992467 heartbeat IPC: 1.84056 cumulative IPC: 1.99558 (Simulation time: 0 hr 30 min 36 sec) 
Heartbeat CPU 0 instructions: 75000000 cycles: 36606437 heartbeat IPC: 1.62874 cumulative IPC: 1.98869 (Simulation time: 0 hr 31 min 0 sec) 
Heartbeat CPU 0 instructions: 76000000 cycles: 37192062 heartbeat IPC: 1.70758 cumulative IPC: 1.98374 (Simulation time: 0 hr 31 min 27 sec) 
Heartbeat CPU 0 instructions: 77000003 cycles: 37771775 heartbeat IPC: 1.725 cumulative IPC: 1.97931 (Simulation time: 0 hr 31 min 51 sec) 
Heartbeat CPU 0 instructions: 78000002 cycles: 38350748 heartbeat IPC: 1.72719 cumulative IPC: 1.97507 (Simulation time: 0 hr 32 min 15 sec) 
Heartbeat CPU 0 instructions: 79000003 cycles: 38922539 heartbeat IPC: 1.74889 cumulative IPC: 1.97137 (Simulation time: 0 hr 32 min 39 sec) 
Heartbeat CPU 0 instructions: 80000000 cycles: 39494971 heartbeat IPC: 1.74693 cumulative IPC: 1.96776 (Simulation time: 0 hr 33 min 3 sec) 
Heartbeat CPU 0 instructions: 81000001 cycles: 40067142 heartbeat IPC: 1.74773 cumulative IPC: 1.96428 (Simulation time: 0 hr 33 min 27 sec) 
Heartbeat CPU 0 instructions: 82000003 cycles: 40630748 heartbeat IPC: 1.77429 cumulative IPC: 1.96136 (Simulation time: 0 hr 33 min 52 sec) 
Heartbeat CPU 0 instructions: 83000003 cycles: 41201040 heartbeat IPC: 1.75349 cumulative IPC: 1.95818 (Simulation time: 0 hr 34 min 18 sec) 
Heartbeat CPU 0 instructions: 84000000 cycles: 41801810 heartbeat IPC: 1.66453 cumulative IPC: 1.95352 (Simulation time: 0 hr 34 min 43 sec) 
Heartbeat CPU 0 instructions: 85000002 cycles: 42339166 heartbeat IPC: 1.86097 cumulative IPC: 1.95223 (Simulation time: 0 hr 35 min 8 sec) 
Heartbeat CPU 0 instructions: 86000001 cycles: 43035397 heartbeat IPC: 1.4363 cumulative IPC: 1.94305 (Simulation time: 0 hr 35 min 34 sec) 
Heartbeat CPU 0 instructions: 87000003 cycles: 43609840 heartbeat IPC: 1.74082 cumulative IPC: 1.94012 (Simulation time: 0 hr 36 min 0 sec) 
Heartbeat CPU 0 instructions: 88000000 cycles: 44071787 heartbeat IPC: 2.16474 cumulative IPC: 1.9427 (Simulation time: 0 hr 36 min 24 sec) 
Heartbeat CPU 0 instructions: 89000000 cycles: 44530047 heartbeat IPC: 2.18217 cumulative IPC: 1.94541 (Simulation time: 0 hr 36 min 48 sec) 
Heartbeat CPU 0 instructions: 90000001 cycles: 44981956 heartbeat IPC: 2.21284 cumulative IPC: 1.94835 (Simulation time: 0 hr 37 min 15 sec) 
Heartbeat CPU 0 instructions: 91000002 cycles: 45516587 heartbeat IPC: 1.87045 cumulative IPC: 1.94735 (Simulation time: 0 hr 37 min 43 sec) 
Heartbeat CPU 0 instructions: 92000000 cycles: 46030480 heartbeat IPC: 1.94593 cumulative IPC: 1.94733 (Simulation time: 0 hr 38 min 8 sec) 
Heartbeat CPU 0 instructions: 93000000 cycles: 46546948 heartbeat IPC: 1.93623 cumulative IPC: 1.9472 (Simulation time: 0 hr 38 min 35 sec) 
Heartbeat CPU 0 instructions: 94000001 cycles: 47046350 heartbeat IPC: 2.0024 cumulative IPC: 1.94784 (Simulation time: 0 hr 39 min 5 sec) 
Heartbeat CPU 0 instructions: 95000003 cycles: 47587595 heartbeat IPC: 1.8476 cumulative IPC: 1.94659 (Simulation time: 0 hr 39 min 32 sec) 
Heartbeat CPU 0 instructions: 96000000 cycles: 48057887 heartbeat IPC: 2.12633 cumulative IPC: 1.94851 (Simulation time: 0 hr 39 min 58 sec) 
Heartbeat CPU 0 instructions: 97000002 cycles: 48538655 heartbeat IPC: 2.08001 cumulative IPC: 1.94993 (Simulation time: 0 hr 40 min 23 sec) 
Heartbeat CPU 0 instructions: 98000001 cycles: 49004488 heartbeat IPC: 2.14669 cumulative IPC: 1.95196 (Simulation time: 0 hr 40 min 47 sec) 
Heartbeat CPU 0 instructions: 99000001 cycles: 49540352 heartbeat IPC: 1.86615 cumulative IPC: 1.95095 (Simulation time: 0 hr 41 min 14 sec) 
Heartbeat CPU 0 instructions: 100000000 cycles: 50016312 heartbeat IPC: 2.10101 cumulative IPC: 1.9525 (Simulation time: 0 hr 41 min 39 sec) 
Heartbeat CPU 0 instructions: 101000001 cycles: 50487755 heartbeat IPC: 2.12115 cumulative IPC: 1.95421 (Simulation time: 0 hr 42 min 5 sec) 
Heartbeat CPU 0 instructions: 102000003 cycles: 50947872 heartbeat IPC: 2.17336 cumulative IPC: 1.95635 (Simulation time: 0 hr 42 min 28 sec) 
Heartbeat CPU 0 instructions: 103000003 cycles: 51468440 heartbeat IPC: 1.92098 cumulative IPC: 1.95596 (Simulation time: 0 hr 42 min 54 sec) 
Heartbeat CPU 0 instructions: 104000000 cycles: 52018021 heartbeat IPC: 1.81956 cumulative IPC: 1.95441 (Simulation time: 0 hr 43 min 19 sec) 
Heartbeat CPU 0 instructions: 105000001 cycles: 52442930 heartbeat IPC: 2.35345 cumulative IPC: 1.9579 (Simulation time: 0 hr 43 min 44 sec) 
Heartbeat CPU 0 instructions: 106000002 cycles: 52888588 heartbeat IPC: 2.24388 cumulative IPC: 1.9605 (Simulation time: 0 hr 44 min 11 sec) 
Heartbeat CPU 0 instructions: 107000001 cycles: 53340119 heartbeat IPC: 2.21469 cumulative IPC: 1.96283 (Simulation time: 0 hr 44 min 35 sec) 
Heartbeat CPU 0 instructions: 108000000 cycles: 53759134 heartbeat IPC: 2.38655 cumulative IPC: 1.96639 (Simulation time: 0 hr 45 min 0 sec) 
Heartbeat CPU 0 instructions: 109000000 cycles: 54232077 heartbeat IPC: 2.11442 cumulative IPC: 1.96778 (Simulation time: 0 hr 45 min 26 sec) 
Heartbeat CPU 0 instructions: 110000000 cycles: 54650788 heartbeat IPC: 2.38828 cumulative IPC: 1.97125 (Simulation time: 0 hr 45 min 52 sec) 
Finished CPU 0 instructions: 100000000 cycles: 50729223 cummulative IPC: 1.97125 (Simulation time: 0 hr 45 min 52 sec) 

ChampSim completed all CPUs

Region of Interest Statistics

CPU 0 cummulative IPC: 1.97125 instructions: 100000000 cycles: 50729223
LLC TOTAL     ACCESS:     865121  HIT:     574459  MISS:     290662
LLC LOAD      ACCESS:     110526  HIT:      92846  MISS:      17680
LLC RFO       ACCESS:        416  HIT:        405  MISS:         11
LLC PREFETCH  ACCESS:     655867  HIT:     387992  MISS:     267875
LLC WRITEBACK ACCESS:      98312  HIT:      93216  MISS:       5096
Insertion Distribution: 
	LOAD 11093 0 8926 385 
	RFO 0 0 18 0 
	PREF 0 12487 45563 228042 
	WRITEBACK 0 0 0 5115 
Total Prefetch Downgrades: 2853
