
*** ChampSim Multicore Out-of-Order Simulator ***

Warmup Instructions: 10000000
Simulation Instructions: 100000000
Configuration: 2
Number of CPUs: 1
LLC sets: 2048
LLC ways: 16
Off-chip DRAM Channels: 1 Width: 64-bit Data Rate: 1600 MT/s

CPU 0 runs /datasets/cs240c-wi22-a00-public/data/Assignment2-gz/wrf_1212B.trace.gz
CPU 0 L1D next line prefetcher
CPU 0 L2C IP-based stride prefetcher
Initialize SRRIP state
Heartbeat CPU 0 instructions: 1000001 cycles: 598660 heartbeat IPC: 1.6704 cumulative IPC: 1.6704 (Simulation time: 0 hr 0 min 34 sec) 
Heartbeat CPU 0 instructions: 2000000 cycles: 1197118 heartbeat IPC: 1.67096 cumulative IPC: 1.67068 (Simulation time: 0 hr 1 min 8 sec) 
Heartbeat CPU 0 instructions: 3000001 cycles: 1795976 heartbeat IPC: 1.66985 cumulative IPC: 1.6704 (Simulation time: 0 hr 1 min 45 sec) 
Heartbeat CPU 0 instructions: 4000000 cycles: 2394087 heartbeat IPC: 1.67193 cumulative IPC: 1.67078 (Simulation time: 0 hr 2 min 20 sec) 
Heartbeat CPU 0 instructions: 5000000 cycles: 2993053 heartbeat IPC: 1.66954 cumulative IPC: 1.67054 (Simulation time: 0 hr 2 min 54 sec) 
Heartbeat CPU 0 instructions: 6000001 cycles: 3592667 heartbeat IPC: 1.66774 cumulative IPC: 1.67007 (Simulation time: 0 hr 3 min 30 sec) 
Heartbeat CPU 0 instructions: 7000001 cycles: 4190665 heartbeat IPC: 1.67225 cumulative IPC: 1.67038 (Simulation time: 0 hr 4 min 10 sec) 
Heartbeat CPU 0 instructions: 8000000 cycles: 4788873 heartbeat IPC: 1.67166 cumulative IPC: 1.67054 (Simulation time: 0 hr 4 min 46 sec) 
Heartbeat CPU 0 instructions: 9000002 cycles: 5387792 heartbeat IPC: 1.66968 cumulative IPC: 1.67044 (Simulation time: 0 hr 5 min 22 sec) 
Heartbeat CPU 0 instructions: 10000001 cycles: 5987357 heartbeat IPC: 1.66787 cumulative IPC: 1.67019 (Simulation time: 0 hr 5 min 57 sec) 

Warmup complete CPU 0 instructions: 10000001 cycles: 5987357 (Simulation time: 0 hr 5 min 57 sec) 

Heartbeat CPU 0 instructions: 11000003 cycles: 7743719 heartbeat IPC: 0.56936 cumulative IPC: 0.56936 (Simulation time: 0 hr 6 min 39 sec) 
Heartbeat CPU 0 instructions: 12000000 cycles: 9513320 heartbeat IPC: 0.565097 cumulative IPC: 0.567221 (Simulation time: 0 hr 7 min 21 sec) 
Heartbeat CPU 0 instructions: 13000000 cycles: 11298746 heartbeat IPC: 0.56009 cumulative IPC: 0.564824 (Simulation time: 0 hr 8 min 2 sec) 
Heartbeat CPU 0 instructions: 14000002 cycles: 13082020 heartbeat IPC: 0.560767 cumulative IPC: 0.563804 (Simulation time: 0 hr 8 min 43 sec) 
Heartbeat CPU 0 instructions: 15000003 cycles: 14873145 heartbeat IPC: 0.558309 cumulative IPC: 0.562697 (Simulation time: 0 hr 9 min 21 sec) 
Heartbeat CPU 0 instructions: 16000000 cycles: 16621152 heartbeat IPC: 0.572078 cumulative IPC: 0.564239 (Simulation time: 0 hr 10 min 1 sec) 
Heartbeat CPU 0 instructions: 17000000 cycles: 18402583 heartbeat IPC: 0.561346 cumulative IPC: 0.563824 (Simulation time: 0 hr 10 min 44 sec) 
Heartbeat CPU 0 instructions: 18000000 cycles: 20184008 heartbeat IPC: 0.561348 cumulative IPC: 0.563513 (Simulation time: 0 hr 11 min 27 sec) 
Heartbeat CPU 0 instructions: 19000003 cycles: 21962577 heartbeat IPC: 0.562251 cumulative IPC: 0.563373 (Simulation time: 0 hr 12 min 9 sec) 
Heartbeat CPU 0 instructions: 20000000 cycles: 23710870 heartbeat IPC: 0.571985 cumulative IPC: 0.564222 (Simulation time: 0 hr 12 min 48 sec) 
Heartbeat CPU 0 instructions: 21000001 cycles: 25477486 heartbeat IPC: 0.566055 cumulative IPC: 0.564388 (Simulation time: 0 hr 13 min 31 sec) 
Heartbeat CPU 0 instructions: 22000001 cycles: 27260244 heartbeat IPC: 0.560929 cumulative IPC: 0.564098 (Simulation time: 0 hr 14 min 11 sec) 
Heartbeat CPU 0 instructions: 23000000 cycles: 29046641 heartbeat IPC: 0.559785 cumulative IPC: 0.563764 (Simulation time: 0 hr 14 min 53 sec) 
Heartbeat CPU 0 instructions: 24000000 cycles: 30828344 heartbeat IPC: 0.561261 cumulative IPC: 0.563585 (Simulation time: 0 hr 15 min 35 sec) 
Heartbeat CPU 0 instructions: 25000002 cycles: 32575404 heartbeat IPC: 0.572391 cumulative IPC: 0.564163 (Simulation time: 0 hr 16 min 21 sec) 
Heartbeat CPU 0 instructions: 26000000 cycles: 34357448 heartbeat IPC: 0.561152 cumulative IPC: 0.563974 (Simulation time: 0 hr 17 min 4 sec) 
Heartbeat CPU 0 instructions: 27000000 cycles: 36139605 heartbeat IPC: 0.561118 cumulative IPC: 0.563805 (Simulation time: 0 hr 17 min 44 sec) 
Heartbeat CPU 0 instructions: 28000000 cycles: 37918494 heartbeat IPC: 0.562149 cumulative IPC: 0.563713 (Simulation time: 0 hr 18 min 25 sec) 
Heartbeat CPU 0 instructions: 29000000 cycles: 39667217 heartbeat IPC: 0.571846 cumulative IPC: 0.564135 (Simulation time: 0 hr 19 min 4 sec) 
Heartbeat CPU 0 instructions: 30000003 cycles: 41428606 heartbeat IPC: 0.567735 cumulative IPC: 0.564314 (Simulation time: 0 hr 19 min 45 sec) 
Heartbeat CPU 0 instructions: 31000000 cycles: 43211240 heartbeat IPC: 0.560966 cumulative IPC: 0.564154 (Simulation time: 0 hr 20 min 26 sec) 
Heartbeat CPU 0 instructions: 32000000 cycles: 44992695 heartbeat IPC: 0.561339 cumulative IPC: 0.564025 (Simulation time: 0 hr 21 min 7 sec) 
Heartbeat CPU 0 instructions: 33000000 cycles: 46777560 heartbeat IPC: 0.560266 cumulative IPC: 0.563861 (Simulation time: 0 hr 21 min 47 sec) 
Heartbeat CPU 0 instructions: 34000000 cycles: 48516422 heartbeat IPC: 0.575089 cumulative IPC: 0.56432 (Simulation time: 0 hr 22 min 28 sec) 
Heartbeat CPU 0 instructions: 35000003 cycles: 50299375 heartbeat IPC: 0.560869 cumulative IPC: 0.564181 (Simulation time: 0 hr 23 min 9 sec) 
Heartbeat CPU 0 instructions: 36000000 cycles: 52080163 heartbeat IPC: 0.561547 cumulative IPC: 0.564079 (Simulation time: 0 hr 23 min 50 sec) 
Heartbeat CPU 0 instructions: 37000001 cycles: 53864097 heartbeat IPC: 0.560559 cumulative IPC: 0.563948 (Simulation time: 0 hr 24 min 33 sec) 
Heartbeat CPU 0 instructions: 38000000 cycles: 55615561 heartbeat IPC: 0.57095 cumulative IPC: 0.564195 (Simulation time: 0 hr 25 min 14 sec) 
Heartbeat CPU 0 instructions: 39000000 cycles: 57370518 heartbeat IPC: 0.569815 cumulative IPC: 0.564387 (Simulation time: 0 hr 25 min 56 sec) 
Heartbeat CPU 0 instructions: 40000000 cycles: 59151802 heartbeat IPC: 0.561393 cumulative IPC: 0.564287 (Simulation time: 0 hr 26 min 37 sec) 
Heartbeat CPU 0 instructions: 41000001 cycles: 60933276 heartbeat IPC: 0.561333 cumulative IPC: 0.564191 (Simulation time: 0 hr 27 min 16 sec) 
Heartbeat CPU 0 instructions: 42000003 cycles: 62715955 heartbeat IPC: 0.560955 cumulative IPC: 0.564089 (Simulation time: 0 hr 27 min 56 sec) 
Heartbeat CPU 0 instructions: 43000001 cycles: 64443606 heartbeat IPC: 0.578819 cumulative IPC: 0.564525 (Simulation time: 0 hr 28 min 37 sec) 
Heartbeat CPU 0 instructions: 44000000 cycles: 66224435 heartbeat IPC: 0.561536 cumulative IPC: 0.564436 (Simulation time: 0 hr 29 min 19 sec) 
Heartbeat CPU 0 instructions: 45000001 cycles: 68004805 heartbeat IPC: 0.561682 cumulative IPC: 0.564357 (Simulation time: 0 hr 30 min 6 sec) 
Heartbeat CPU 0 instructions: 46000001 cycles: 69783444 heartbeat IPC: 0.562228 cumulative IPC: 0.564298 (Simulation time: 0 hr 30 min 47 sec) 
Heartbeat CPU 0 instructions: 47000000 cycles: 71535370 heartbeat IPC: 0.5708 cumulative IPC: 0.564472 (Simulation time: 0 hr 31 min 32 sec) 
Heartbeat CPU 0 instructions: 48000000 cycles: 73276934 heartbeat IPC: 0.574197 cumulative IPC: 0.564723 (Simulation time: 0 hr 32 min 12 sec) 
Heartbeat CPU 0 instructions: 49000002 cycles: 75058615 heartbeat IPC: 0.561269 cumulative IPC: 0.564634 (Simulation time: 0 hr 32 min 53 sec) 
Heartbeat CPU 0 instructions: 50000002 cycles: 76839388 heartbeat IPC: 0.561554 cumulative IPC: 0.564557 (Simulation time: 0 hr 33 min 33 sec) 
Heartbeat CPU 0 instructions: 51000002 cycles: 78639035 heartbeat IPC: 0.555665 cumulative IPC: 0.564337 (Simulation time: 0 hr 34 min 15 sec) 
Heartbeat CPU 0 instructions: 52000000 cycles: 80362077 heartbeat IPC: 0.580368 cumulative IPC: 0.564708 (Simulation time: 0 hr 34 min 55 sec) 
Heartbeat CPU 0 instructions: 53000002 cycles: 82129307 heartbeat IPC: 0.565858 cumulative IPC: 0.564735 (Simulation time: 0 hr 35 min 34 sec) 
Heartbeat CPU 0 instructions: 54000001 cycles: 83909863 heartbeat IPC: 0.561622 cumulative IPC: 0.564664 (Simulation time: 0 hr 36 min 13 sec) 
Heartbeat CPU 0 instructions: 55000000 cycles: 85689509 heartbeat IPC: 0.561909 cumulative IPC: 0.564602 (Simulation time: 0 hr 36 min 52 sec) 
Heartbeat CPU 0 instructions: 56000000 cycles: 87461881 heartbeat IPC: 0.564216 cumulative IPC: 0.564594 (Simulation time: 0 hr 37 min 33 sec) 
Heartbeat CPU 0 instructions: 57000001 cycles: 89187441 heartbeat IPC: 0.579523 cumulative IPC: 0.564903 (Simulation time: 0 hr 38 min 13 sec) 
Heartbeat CPU 0 instructions: 58000001 cycles: 90969834 heartbeat IPC: 0.561044 cumulative IPC: 0.564822 (Simulation time: 0 hr 38 min 56 sec) 
Heartbeat CPU 0 instructions: 59000000 cycles: 92751519 heartbeat IPC: 0.561266 cumulative IPC: 0.564749 (Simulation time: 0 hr 39 min 36 sec) 
Heartbeat CPU 0 instructions: 60000000 cycles: 94535293 heartbeat IPC: 0.560609 cumulative IPC: 0.564666 (Simulation time: 0 hr 40 min 16 sec) 
Heartbeat CPU 0 instructions: 61000001 cycles: 96274337 heartbeat IPC: 0.575029 cumulative IPC: 0.564865 (Simulation time: 0 hr 40 min 53 sec) 
Heartbeat CPU 0 instructions: 62000001 cycles: 98017307 heartbeat IPC: 0.573733 cumulative IPC: 0.565033 (Simulation time: 0 hr 41 min 32 sec) 
Heartbeat CPU 0 instructions: 63000002 cycles: 99803498 heartbeat IPC: 0.559851 cumulative IPC: 0.564935 (Simulation time: 0 hr 42 min 14 sec) 
Heartbeat CPU 0 instructions: 64000000 cycles: 101585715 heartbeat IPC: 0.561098 cumulative IPC: 0.564863 (Simulation time: 0 hr 42 min 55 sec) 
Heartbeat CPU 0 instructions: 65000000 cycles: 103371858 heartbeat IPC: 0.559866 cumulative IPC: 0.564772 (Simulation time: 0 hr 43 min 36 sec) 
Heartbeat CPU 0 instructions: 66000001 cycles: 105086490 heartbeat IPC: 0.583216 cumulative IPC: 0.565091 (Simulation time: 0 hr 44 min 23 sec) 
Heartbeat CPU 0 instructions: 67000002 cycles: 106843240 heartbeat IPC: 0.569234 cumulative IPC: 0.565163 (Simulation time: 0 hr 45 min 10 sec) 
Heartbeat CPU 0 instructions: 68000000 cycles: 108628321 heartbeat IPC: 0.560198 cumulative IPC: 0.565077 (Simulation time: 0 hr 45 min 51 sec) 
Heartbeat CPU 0 instructions: 69000001 cycles: 110410956 heartbeat IPC: 0.560968 cumulative IPC: 0.565006 (Simulation time: 0 hr 46 min 39 sec) 
Heartbeat CPU 0 instructions: 70000000 cycles: 112179826 heartbeat IPC: 0.565332 cumulative IPC: 0.565012 (Simulation time: 0 hr 47 min 19 sec) 
Heartbeat CPU 0 instructions: 71000001 cycles: 113894891 heartbeat IPC: 0.583069 cumulative IPC: 0.565299 (Simulation time: 0 hr 47 min 56 sec) 
Heartbeat CPU 0 instructions: 72000000 cycles: 115671566 heartbeat IPC: 0.562849 cumulative IPC: 0.565259 (Simulation time: 0 hr 48 min 37 sec) 
Heartbeat CPU 0 instructions: 73000001 cycles: 117458841 heartbeat IPC: 0.559512 cumulative IPC: 0.565167 (Simulation time: 0 hr 49 min 13 sec) 
Heartbeat CPU 0 instructions: 74000000 cycles: 119238327 heartbeat IPC: 0.561959 cumulative IPC: 0.565117 (Simulation time: 0 hr 49 min 49 sec) 
Heartbeat CPU 0 instructions: 75000002 cycles: 120994110 heartbeat IPC: 0.569548 cumulative IPC: 0.565184 (Simulation time: 0 hr 50 min 24 sec) 
Heartbeat CPU 0 instructions: 76000000 cycles: 122728131 heartbeat IPC: 0.576693 cumulative IPC: 0.565355 (Simulation time: 0 hr 50 min 59 sec) 
Heartbeat CPU 0 instructions: 77000003 cycles: 124505320 heartbeat IPC: 0.562688 cumulative IPC: 0.565315 (Simulation time: 0 hr 51 min 35 sec) 
Heartbeat CPU 0 instructions: 78000000 cycles: 126287466 heartbeat IPC: 0.56112 cumulative IPC: 0.565253 (Simulation time: 0 hr 52 min 11 sec) 
Heartbeat CPU 0 instructions: 79000000 cycles: 128085380 heartbeat IPC: 0.5562 cumulative IPC: 0.56512 (Simulation time: 0 hr 52 min 46 sec) 
Heartbeat CPU 0 instructions: 80000000 cycles: 129803712 heartbeat IPC: 0.58196 cumulative IPC: 0.565353 (Simulation time: 0 hr 53 min 19 sec) 
Heartbeat CPU 0 instructions: 81000003 cycles: 131569659 heartbeat IPC: 0.56627 cumulative IPC: 0.565366 (Simulation time: 0 hr 53 min 51 sec) 
Heartbeat CPU 0 instructions: 82000002 cycles: 133360235 heartbeat IPC: 0.558479 cumulative IPC: 0.565269 (Simulation time: 0 hr 54 min 20 sec) 
Heartbeat CPU 0 instructions: 83000001 cycles: 135145091 heartbeat IPC: 0.560269 cumulative IPC: 0.5652 (Simulation time: 0 hr 54 min 49 sec) 
Heartbeat CPU 0 instructions: 84000000 cycles: 136920548 heartbeat IPC: 0.563235 cumulative IPC: 0.565174 (Simulation time: 0 hr 55 min 16 sec) 
Heartbeat CPU 0 instructions: 85000000 cycles: 138637873 heartbeat IPC: 0.582301 cumulative IPC: 0.565395 (Simulation time: 0 hr 55 min 44 sec) 
Heartbeat CPU 0 instructions: 86000001 cycles: 140423553 heartbeat IPC: 0.560011 cumulative IPC: 0.565324 (Simulation time: 0 hr 56 min 10 sec) 
Heartbeat CPU 0 instructions: 87000000 cycles: 142205510 heartbeat IPC: 0.56118 cumulative IPC: 0.56527 (Simulation time: 0 hr 56 min 38 sec) 
Heartbeat CPU 0 instructions: 88000000 cycles: 143982270 heartbeat IPC: 0.562822 cumulative IPC: 0.565238 (Simulation time: 0 hr 57 min 4 sec) 
Heartbeat CPU 0 instructions: 89000000 cycles: 145734386 heartbeat IPC: 0.570738 cumulative IPC: 0.565307 (Simulation time: 0 hr 57 min 28 sec) 
Heartbeat CPU 0 instructions: 90000000 cycles: 147490443 heartbeat IPC: 0.569458 cumulative IPC: 0.565359 (Simulation time: 0 hr 57 min 51 sec) 
Heartbeat CPU 0 instructions: 91000001 cycles: 149269835 heartbeat IPC: 0.56199 cumulative IPC: 0.565317 (Simulation time: 0 hr 58 min 15 sec) 
Heartbeat CPU 0 instructions: 92000000 cycles: 151052752 heartbeat IPC: 0.560878 cumulative IPC: 0.565262 (Simulation time: 0 hr 58 min 39 sec) 
Heartbeat CPU 0 instructions: 93000003 cycles: 152836531 heartbeat IPC: 0.560609 cumulative IPC: 0.565206 (Simulation time: 0 hr 59 min 1 sec) 
Heartbeat CPU 0 instructions: 94000001 cycles: 154563149 heartbeat IPC: 0.579166 cumulative IPC: 0.565368 (Simulation time: 0 hr 59 min 23 sec) 
Heartbeat CPU 0 instructions: 95000001 cycles: 156343784 heartbeat IPC: 0.561597 cumulative IPC: 0.565323 (Simulation time: 0 hr 59 min 46 sec) 
Heartbeat CPU 0 instructions: 96000000 cycles: 158124390 heartbeat IPC: 0.561606 cumulative IPC: 0.56528 (Simulation time: 1 hr 0 min 6 sec) 
Heartbeat CPU 0 instructions: 97000000 cycles: 159904438 heartbeat IPC: 0.561783 cumulative IPC: 0.565239 (Simulation time: 1 hr 0 min 24 sec) 
Heartbeat CPU 0 instructions: 98000000 cycles: 161665581 heartbeat IPC: 0.567813 cumulative IPC: 0.565269 (Simulation time: 1 hr 0 min 43 sec) 
Heartbeat CPU 0 instructions: 99000000 cycles: 163419925 heartbeat IPC: 0.570014 cumulative IPC: 0.565321 (Simulation time: 1 hr 1 min 0 sec) 
Heartbeat CPU 0 instructions: 100000000 cycles: 165198155 heartbeat IPC: 0.562357 cumulative IPC: 0.565288 (Simulation time: 1 hr 1 min 16 sec) 
Heartbeat CPU 0 instructions: 101000000 cycles: 166975975 heartbeat IPC: 0.562487 cumulative IPC: 0.565257 (Simulation time: 1 hr 1 min 31 sec) 
Heartbeat CPU 0 instructions: 102000003 cycles: 168764259 heartbeat IPC: 0.559197 cumulative IPC: 0.565191 (Simulation time: 1 hr 1 min 44 sec) 
Heartbeat CPU 0 instructions: 103000001 cycles: 170496318 heartbeat IPC: 0.577346 cumulative IPC: 0.565319 (Simulation time: 1 hr 1 min 56 sec) 
Heartbeat CPU 0 instructions: 104000000 cycles: 172280979 heartbeat IPC: 0.56033 cumulative IPC: 0.565265 (Simulation time: 1 hr 2 min 9 sec) 
Heartbeat CPU 0 instructions: 105000002 cycles: 174060888 heartbeat IPC: 0.561828 cumulative IPC: 0.565229 (Simulation time: 1 hr 2 min 23 sec) 
Heartbeat CPU 0 instructions: 106000001 cycles: 175838218 heartbeat IPC: 0.562641 cumulative IPC: 0.565202 (Simulation time: 1 hr 2 min 37 sec) 
Heartbeat CPU 0 instructions: 107000003 cycles: 177598074 heartbeat IPC: 0.568229 cumulative IPC: 0.565233 (Simulation time: 1 hr 2 min 50 sec) 
Heartbeat CPU 0 instructions: 108000000 cycles: 179362840 heartbeat IPC: 0.566646 cumulative IPC: 0.565247 (Simulation time: 1 hr 3 min 3 sec) 
Heartbeat CPU 0 instructions: 109000002 cycles: 181146862 heartbeat IPC: 0.560532 cumulative IPC: 0.565199 (Simulation time: 1 hr 3 min 15 sec) 
Heartbeat CPU 0 instructions: 110000003 cycles: 182925559 heartbeat IPC: 0.56221 cumulative IPC: 0.565169 (Simulation time: 1 hr 3 min 25 sec) 
Finished CPU 0 instructions: 100000002 cycles: 176938202 cummulative IPC: 0.565169 (Simulation time: 1 hr 3 min 25 sec) 

ChampSim completed all CPUs

Region of Interest Statistics

CPU 0 cummulative IPC: 0.565169 instructions: 100000002 cycles: 176938202
LLC TOTAL     ACCESS:     134628  HIT:      35397  MISS:      99231
LLC LOAD      ACCESS:      14836  HIT:       4250  MISS:      10586
LLC RFO       ACCESS:       1242  HIT:        338  MISS:        904
LLC PREFETCH  ACCESS:      79455  HIT:       9622  MISS:      69833
LLC WRITEBACK ACCESS:      39095  HIT:      21187  MISS:      17908
Insertion Distribution: 
	LOAD 1360 0 9811 1067 
	RFO 0 0 1050 180 
	PREF 0 0 29875 48154 
	WRITEBACK 0 0 0 17908 
Total Prefetch Downgrades: 300
