Initialize SIGNATURE TABLE
ST_SET: 1
ST_WAY: 256
ST_TAG_BIT: 16
ST_TAG_MASK: ffff

Initialize PATTERN TABLE
PT_SET: 512
PT_WAY: 4
SIG_DELTA_BIT: 7
C_SIG_BIT: 4
C_DELTA_BIT: 4

Initialize PREFETCH FILTER
FILTER_SET: 1024

*** ChampSim Multicore Out-of-Order Simulator ***

Warmup Instructions: 50000000
Simulation Instructions: 50000000
Number of CPUs: 1
LLC sets: 2048
LLC ways: 16
Off-chip DRAM Size: 4096 MB Channels: 1 Width: 64-bit Data Rate: 3200 MT/s

CPU 0 runs /Users/gandhardeshpande/Desktop/CSE240C/HW1/ChampSim/ipc1_public/client_001.champsimtrace.xz
L1I Barca has been initializedCPU 0 L1D next line prefetcher
Heartbeat CPU 0 instructions: 10000003 cycles: 3410290 heartbeat IPC: 2.9323 cumulative IPC: 2.9323 (Simulation time: 0 hr 0 min 17 sec) 
Heartbeat CPU 0 instructions: 20000001 cycles: 7118446 heartbeat IPC: 2.69676 cumulative IPC: 2.8096 (Simulation time: 0 hr 0 min 35 sec) 
Heartbeat CPU 0 instructions: 30000001 cycles: 10480864 heartbeat IPC: 2.97405 cumulative IPC: 2.86236 (Simulation time: 0 hr 0 min 53 sec) 
Heartbeat CPU 0 instructions: 40000003 cycles: 14350361 heartbeat IPC: 2.58432 cumulative IPC: 2.78739 (Simulation time: 0 hr 1 min 11 sec) 
Heartbeat CPU 0 instructions: 50000003 cycles: 17647116 heartbeat IPC: 3.03329 cumulative IPC: 2.83332 (Simulation time: 0 hr 1 min 29 sec) 

Warmup complete CPU 0 instructions: 50000003 cycles: 17647116 (Simulation time: 0 hr 1 min 29 sec) 

Heartbeat CPU 0 instructions: 60000000 cycles: 26666708 heartbeat IPC: 1.1087 cumulative IPC: 1.1087 (Simulation time: 0 hr 1 min 52 sec) 
Heartbeat CPU 0 instructions: 70000000 cycles: 32982391 heartbeat IPC: 1.58336 cumulative IPC: 1.30418 (Simulation time: 0 hr 2 min 7 sec) 
Heartbeat CPU 0 instructions: 80000002 cycles: 42304922 heartbeat IPC: 1.07267 cumulative IPC: 1.21665 (Simulation time: 0 hr 2 min 31 sec) 
Heartbeat CPU 0 instructions: 90000000 cycles: 48475982 heartbeat IPC: 1.62047 cumulative IPC: 1.29749 (Simulation time: 0 hr 2 min 44 sec) 
Heartbeat CPU 0 instructions: 100000002 cycles: 57335083 heartbeat IPC: 1.12878 cumulative IPC: 1.25983 (Simulation time: 0 hr 3 min 4 sec) 
Finished CPU 0 instructions: 50000003 cycles: 39687968 cumulative IPC: 1.25983 (Simulation time: 0 hr 3 min 4 sec) 

ChampSim completed all CPUs

Region of Interest Statistics

CPU 0 cumulative IPC: 1.25983 instructions: 50000003 cycles: 39687968
L1D TOTAL     ACCESS:   21236877  HIT:   20400452  MISS:     836425
L1D LOAD      ACCESS:    8819981  HIT:    8425302  MISS:     394679
L1D RFO       ACCESS:    4040055  HIT:    3980999  MISS:      59056
L1D PREFETCH  ACCESS:    8376841  HIT:    7994151  MISS:     382690
L1D WRITEBACK ACCESS:          0  HIT:          0  MISS:          0
L1D PREFETCH  REQUESTED:    8865601  ISSUED:    8555927  USEFUL:     129670  USELESS:     252994
L1D AVERAGE MISS LATENCY: 47.6177 cycles
L1I TOTAL     ACCESS:    9357806  HIT:    8983375  MISS:     374431
L1I LOAD      ACCESS:    8917967  HIT:    8897615  MISS:      20352
L1I RFO       ACCESS:          0  HIT:          0  MISS:          0
L1I PREFETCH  ACCESS:     439839  HIT:      85760  MISS:     354079
L1I WRITEBACK ACCESS:          0  HIT:          0  MISS:          0
L1I PREFETCH  REQUESTED:     488177  ISSUED:     488177  USEFUL:     281645  USELESS:      72453
L1I AVERAGE MISS LATENCY: 21.2809 cycles
L2C TOTAL     ACCESS:    1855721  HIT:    1549906  MISS:     305815
L2C LOAD      ACCESS:     382593  HIT:     269621  MISS:     112972
L2C RFO       ACCESS:      58283  HIT:      21125  MISS:      37158
L2C PREFETCH  ACCESS:    1225257  HIT:    1069783  MISS:     155474
L2C WRITEBACK ACCESS:     189588  HIT:     189377  MISS:        211
L2C PREFETCH  REQUESTED:    1480077  ISSUED:    1473972  USEFUL:      13568  USELESS:     140903
L2C AVERAGE MISS LATENCY: 104.941 cycles
LLC TOTAL     ACCESS:     825903  HIT:     625213  MISS:     200690
LLC LOAD      ACCESS:     112647  HIT:      70980  MISS:      41667
LLC RFO       ACCESS:      37157  HIT:       8949  MISS:      28208
LLC PREFETCH  ACCESS:     569662  HIT:     439537  MISS:     130125
LLC WRITEBACK ACCESS:     106437  HIT:     105747  MISS:        690
LLC PREFETCH  REQUESTED:          0  ISSUED:          0  USEFUL:      28629  USELESS:     103508
LLC AVERAGE MISS LATENCY: 188.375 cycles
Major fault: 0 Minor fault: 3433
CPU 0 L1D next line prefetcher final stats

DRAM Statistics
 CHANNEL 0
 RQ ROW_BUFFER_HIT:      48549  ROW_BUFFER_MISS:     151447
 DBUS_CONGESTED:     118566
 WQ ROW_BUFFER_HIT:      16147  ROW_BUFFER_MISS:      65038  FULL:          0

 AVG_CONGESTED_CYCLE: 5

CPU 0 Branch Prediction Accuracy: 97.9037% MPKI: 3.63418 Average ROB Occupancy at Mispredict: 86.8116

Branch types
NOT_BRANCH: 41331383 82.6628%
BRANCH_DIRECT_JUMP: 455615 0.91123%
BRANCH_INDIRECT: 20390 0.04078%
BRANCH_CONDITIONAL: 6745374 13.4907%
BRANCH_DIRECT_CALL: 494532 0.989064%
BRANCH_INDIRECT_CALL: 228815 0.45763%
BRANCH_RETURN: 723560 1.44712%
BRANCH_OTHER: 0 0%

