Initialize SIGNATURE TABLE
ST_SET: 1
ST_WAY: 256
ST_TAG_BIT: 16
ST_TAG_MASK: ffff

Initialize PATTERN TABLE
PT_SET: 512
PT_WAY: 4
SIG_DELTA_BIT: 7
C_SIG_BIT: 4
C_DELTA_BIT: 4

Initialize PREFETCH FILTER
FILTER_SET: 1024

*** ChampSim Multicore Out-of-Order Simulator ***

Warmup Instructions: 50000000
Simulation Instructions: 50000000
Number of CPUs: 1
LLC sets: 2048
LLC ways: 16
Off-chip DRAM Size: 4096 MB Channels: 1 Width: 64-bit Data Rate: 3200 MT/s

CPU 0 runs /Users/gandhardeshpande/Desktop/CSE240C/HW1/ChampSim/ipc1_public/server_025.champsimtrace.xz
L1I Barca has been initializedCPU 0 L1D next line prefetcher
Heartbeat CPU 0 instructions: 10000003 cycles: 3528878 heartbeat IPC: 2.83376 cumulative IPC: 2.83376 (Simulation time: 0 hr 0 min 21 sec) 
Heartbeat CPU 0 instructions: 20000000 cycles: 7065802 heartbeat IPC: 2.82731 cumulative IPC: 2.83053 (Simulation time: 0 hr 0 min 42 sec) 
Heartbeat CPU 0 instructions: 30000001 cycles: 10593668 heartbeat IPC: 2.83458 cumulative IPC: 2.83188 (Simulation time: 0 hr 1 min 4 sec) 
Heartbeat CPU 0 instructions: 40000003 cycles: 14128145 heartbeat IPC: 2.82927 cumulative IPC: 2.83123 (Simulation time: 0 hr 1 min 26 sec) 
Heartbeat CPU 0 instructions: 50000001 cycles: 17660549 heartbeat IPC: 2.83093 cumulative IPC: 2.83117 (Simulation time: 0 hr 1 min 47 sec) 

Warmup complete CPU 0 instructions: 50000001 cycles: 17660549 (Simulation time: 0 hr 1 min 47 sec) 

Heartbeat CPU 0 instructions: 60000002 cycles: 24570272 heartbeat IPC: 1.44724 cumulative IPC: 1.44724 (Simulation time: 0 hr 2 min 8 sec) 
Heartbeat CPU 0 instructions: 70000000 cycles: 31578341 heartbeat IPC: 1.42693 cumulative IPC: 1.43701 (Simulation time: 0 hr 2 min 30 sec) 
Heartbeat CPU 0 instructions: 80000002 cycles: 38507512 heartbeat IPC: 1.44317 cumulative IPC: 1.43906 (Simulation time: 0 hr 2 min 52 sec) 
Heartbeat CPU 0 instructions: 90000001 cycles: 45072719 heartbeat IPC: 1.52318 cumulative IPC: 1.45921 (Simulation time: 0 hr 3 min 15 sec) 
Heartbeat CPU 0 instructions: 100000003 cycles: 51331062 heartbeat IPC: 1.59787 cumulative IPC: 1.48498 (Simulation time: 0 hr 3 min 38 sec) 
Finished CPU 0 instructions: 50000002 cycles: 33670513 cumulative IPC: 1.48498 (Simulation time: 0 hr 3 min 38 sec) 

ChampSim completed all CPUs

Region of Interest Statistics

CPU 0 cumulative IPC: 1.48498 instructions: 50000002 cycles: 33670513
L1D TOTAL     ACCESS:   20042882  HIT:   18617439  MISS:    1425443
L1D LOAD      ACCESS:    6986368  HIT:    6367347  MISS:     619021
L1D RFO       ACCESS:    6381258  HIT:    6133225  MISS:     248033
L1D PREFETCH  ACCESS:    6675256  HIT:    6116867  MISS:     558389
L1D WRITEBACK ACCESS:          0  HIT:          0  MISS:          0
L1D PREFETCH  REQUESTED:    7027338  ISSUED:    6854097  USEFUL:     131114  USELESS:     427269
L1D AVERAGE MISS LATENCY: 23.3725 cycles
L1I TOTAL     ACCESS:   13122559  HIT:    9831618  MISS:    3290941
L1I LOAD      ACCESS:    9424766  HIT:    9142703  MISS:     282063
L1I RFO       ACCESS:          0  HIT:          0  MISS:          0
L1I PREFETCH  ACCESS:    3697793  HIT:     688915  MISS:    3008878
L1I WRITEBACK ACCESS:          0  HIT:          0  MISS:          0
L1I PREFETCH  REQUESTED:    4242091  ISSUED:    4242091  USEFUL:    2233658  USELESS:     775290
L1I AVERAGE MISS LATENCY: 16.9661 cycles
L2C TOTAL     ACCESS:    6380509  HIT:    5684322  MISS:     696187
L2C LOAD      ACCESS:     688232  HIT:     557500  MISS:     130732
L2C RFO       ACCESS:     246525  HIT:     174108  MISS:      72417
L2C PREFETCH  ACCESS:    4949025  HIT:    4462066  MISS:     486959
L2C WRITEBACK ACCESS:     496727  HIT:     490648  MISS:       6079
L2C PREFETCH  REQUESTED:    3434535  ISSUED:    3432029  USEFUL:      13669  USELESS:     472886
L2C AVERAGE MISS LATENCY: 36.5814 cycles
LLC TOTAL     ACCESS:    1797221  HIT:    1767987  MISS:      29234
LLC LOAD      ACCESS:     130596  HIT:     127343  MISS:       3253
LLC RFO       ACCESS:      72416  HIT:      61617  MISS:      10799
LLC PREFETCH  ACCESS:    1466607  HIT:    1451636  MISS:      14971
LLC WRITEBACK ACCESS:     127602  HIT:     127391  MISS:        211
LLC PREFETCH  REQUESTED:          0  ISSUED:          0  USEFUL:       1046  USELESS:      13122
LLC AVERAGE MISS LATENCY: 177.911 cycles
Major fault: 0 Minor fault: 2457
CPU 0 L1D next line prefetcher final stats

DRAM Statistics
 CHANNEL 0
 RQ ROW_BUFFER_HIT:       9242  ROW_BUFFER_MISS:      19773
 DBUS_CONGESTED:      18049
 WQ ROW_BUFFER_HIT:       1298  ROW_BUFFER_MISS:      11696  FULL:          0

 AVG_CONGESTED_CYCLE: 6

CPU 0 Branch Prediction Accuracy: 99.8142% MPKI: 0.34676 Average ROB Occupancy at Mispredict: 191.482

Branch types
NOT_BRANCH: 40668899 81.3378%
BRANCH_DIRECT_JUMP: 531700 1.0634%
BRANCH_INDIRECT: 199025 0.39805%
BRANCH_CONDITIONAL: 6211495 12.423%
BRANCH_DIRECT_CALL: 1010911 2.02182%
BRANCH_INDIRECT_CALL: 183501 0.367002%
BRANCH_RETURN: 1194415 2.38883%
BRANCH_OTHER: 0 0%

