Initialize SIGNATURE TABLE
ST_SET: 1
ST_WAY: 256
ST_TAG_BIT: 16
ST_TAG_MASK: ffff

Initialize PATTERN TABLE
PT_SET: 512
PT_WAY: 4
SIG_DELTA_BIT: 7
C_SIG_BIT: 4
C_DELTA_BIT: 4

Initialize PREFETCH FILTER
FILTER_SET: 1024

*** ChampSim Multicore Out-of-Order Simulator ***

Warmup Instructions: 50000000
Simulation Instructions: 50000000
Number of CPUs: 1
LLC sets: 2048
LLC ways: 16
Off-chip DRAM Size: 4096 MB Channels: 1 Width: 64-bit Data Rate: 3200 MT/s

CPU 0 runs /Users/gandhardeshpande/Desktop/CSE240C/HW1/ChampSim/ipc1_public/client_002.champsimtrace.xz
CPU 0 L1D next line prefetcher
Heartbeat CPU 0 instructions: 10000000 cycles: 3405325 heartbeat IPC: 2.93658 cumulative IPC: 2.93658 (Simulation time: 0 hr 0 min 29 sec) 
Heartbeat CPU 0 instructions: 20000002 cycles: 6861250 heartbeat IPC: 2.89358 cumulative IPC: 2.91492 (Simulation time: 0 hr 0 min 58 sec) 
Heartbeat CPU 0 instructions: 30000001 cycles: 10294222 heartbeat IPC: 2.91293 cumulative IPC: 2.91426 (Simulation time: 0 hr 1 min 27 sec) 
Heartbeat CPU 0 instructions: 40000002 cycles: 13727146 heartbeat IPC: 2.91297 cumulative IPC: 2.91393 (Simulation time: 0 hr 1 min 55 sec) 
Heartbeat CPU 0 instructions: 50000002 cycles: 17168045 heartbeat IPC: 2.90622 cumulative IPC: 2.91239 (Simulation time: 0 hr 2 min 25 sec) 

Warmup complete CPU 0 instructions: 50000002 cycles: 17168045 (Simulation time: 0 hr 2 min 25 sec) 

Heartbeat CPU 0 instructions: 60000002 cycles: 23136308 heartbeat IPC: 1.67553 cumulative IPC: 1.67553 (Simulation time: 0 hr 2 min 53 sec) 
Heartbeat CPU 0 instructions: 70000001 cycles: 29169765 heartbeat IPC: 1.65742 cumulative IPC: 1.66643 (Simulation time: 0 hr 3 min 23 sec) 
Heartbeat CPU 0 instructions: 80000003 cycles: 35082491 heartbeat IPC: 1.69127 cumulative IPC: 1.67463 (Simulation time: 0 hr 3 min 53 sec) 
Heartbeat CPU 0 instructions: 90000000 cycles: 41571035 heartbeat IPC: 1.54118 cumulative IPC: 1.63914 (Simulation time: 0 hr 4 min 22 sec) 
Heartbeat CPU 0 instructions: 100000003 cycles: 47533737 heartbeat IPC: 1.67709 cumulative IPC: 1.6466 (Simulation time: 0 hr 4 min 53 sec) 
Finished CPU 0 instructions: 50000001 cycles: 30365692 cumulative IPC: 1.6466 (Simulation time: 0 hr 4 min 53 sec) 

ChampSim completed all CPUs

Region of Interest Statistics

CPU 0 cumulative IPC: 1.6466 instructions: 50000001 cycles: 30365692
L1D TOTAL     ACCESS:   19111756  HIT:   18772501  MISS:     339255
L1D LOAD      ACCESS:    6478629  HIT:    6361666  MISS:     116963
L1D RFO       ACCESS:    6417531  HIT:    6327527  MISS:      90004
L1D PREFETCH  ACCESS:    6215596  HIT:    6083308  MISS:     132288
L1D WRITEBACK ACCESS:          0  HIT:          0  MISS:          0
L1D PREFETCH  REQUESTED:    6488932  ISSUED:    6286906  USEFUL:      53509  USELESS:      78920
L1D AVERAGE MISS LATENCY: 49.6713 cycles
L1I TOTAL     ACCESS:   10971855  HIT:    9867802  MISS:    1104053
L1I LOAD      ACCESS:    9532190  HIT:    9449489  MISS:      82701
L1I RFO       ACCESS:          0  HIT:          0  MISS:          0
L1I PREFETCH  ACCESS:    1439665  HIT:     418313  MISS:    1021352
L1I WRITEBACK ACCESS:          0  HIT:          0  MISS:          0
L1I PREFETCH  REQUESTED:    1602968  ISSUED:    1602968  USEFUL:     625729  USELESS:     395550
L1I AVERAGE MISS LATENCY: 16.8336 cycles
L2C TOTAL     ACCESS:    1926473  HIT:    1683492  MISS:     242981
L2C LOAD      ACCESS:     151826  HIT:     104379  MISS:      47447
L2C RFO       ACCESS:      88839  HIT:      22984  MISS:      65855
L2C PREFETCH  ACCESS:    1560303  HIT:    1431182  MISS:     129121
L2C WRITEBACK ACCESS:     125505  HIT:     124947  MISS:        558
L2C PREFETCH  REQUESTED:     796658  ISSUED:     796438  USEFUL:       9187  USELESS:     119197
L2C AVERAGE MISS LATENCY: 64.166 cycles
LLC TOTAL     ACCESS:     524936  HIT:     463085  MISS:      61851
LLC LOAD      ACCESS:      47447  HIT:      41245  MISS:       6202
LLC RFO       ACCESS:      65855  HIT:      35930  MISS:      29925
LLC PREFETCH  ACCESS:     327157  HIT:     301690  MISS:      25467
LLC WRITEBACK ACCESS:      84477  HIT:      84220  MISS:        257
LLC PREFETCH  REQUESTED:          0  ISSUED:          0  USEFUL:       5183  USELESS:      19313
LLC AVERAGE MISS LATENCY: 177.536 cycles
Major fault: 0 Minor fault: 3091
CPU 0 L1D next line prefetcher final stats

DRAM Statistics
 CHANNEL 0
 RQ ROW_BUFFER_HIT:      22066  ROW_BUFFER_MISS:      39528
 DBUS_CONGESTED:      43012
 WQ ROW_BUFFER_HIT:       9275  ROW_BUFFER_MISS:      27693  FULL:          0

 AVG_CONGESTED_CYCLE: 6

CPU 0 Branch Prediction Accuracy: 99.2117% MPKI: 1.49752 Average ROB Occupancy at Mispredict: 115.728

Branch types
NOT_BRANCH: 40501616 81.0032%
BRANCH_DIRECT_JUMP: 517397 1.03479%
BRANCH_INDIRECT: 112348 0.224696%
BRANCH_CONDITIONAL: 6698737 13.3975%
BRANCH_DIRECT_CALL: 960974 1.92195%
BRANCH_INDIRECT_CALL: 123707 0.247414%
BRANCH_RETURN: 1084929 2.16986%
BRANCH_OTHER: 0 0%

