Initialize SIGNATURE TABLE
ST_SET: 1
ST_WAY: 256
ST_TAG_BIT: 16
ST_TAG_MASK: ffff

Initialize PATTERN TABLE
PT_SET: 512
PT_WAY: 4
SIG_DELTA_BIT: 7
C_SIG_BIT: 4
C_DELTA_BIT: 4

Initialize PREFETCH FILTER
FILTER_SET: 1024

*** ChampSim Multicore Out-of-Order Simulator ***

Warmup Instructions: 50000000
Simulation Instructions: 50000000
Number of CPUs: 1
LLC sets: 2048
LLC ways: 16
Off-chip DRAM Size: 4096 MB Channels: 1 Width: 64-bit Data Rate: 3200 MT/s

CPU 0 runs /Users/gandhardeshpande/Desktop/CSE240C/HW1/ChampSim/ipc1_public/server_013.champsimtrace.xz
CPU 0 L1D next line prefetcher
Heartbeat CPU 0 instructions: 10000000 cycles: 3216567 heartbeat IPC: 3.1089 cumulative IPC: 3.1089 (Simulation time: 0 hr 0 min 22 sec) 
Heartbeat CPU 0 instructions: 20000001 cycles: 6421297 heartbeat IPC: 3.12039 cumulative IPC: 3.11464 (Simulation time: 0 hr 0 min 44 sec) 
Heartbeat CPU 0 instructions: 30000002 cycles: 9629429 heartbeat IPC: 3.11708 cumulative IPC: 3.11545 (Simulation time: 0 hr 1 min 6 sec) 
Heartbeat CPU 0 instructions: 40000002 cycles: 12833600 heartbeat IPC: 3.12093 cumulative IPC: 3.11682 (Simulation time: 0 hr 1 min 28 sec) 
Heartbeat CPU 0 instructions: 50000000 cycles: 16036856 heartbeat IPC: 3.12182 cumulative IPC: 3.11782 (Simulation time: 0 hr 1 min 49 sec) 

Warmup complete CPU 0 instructions: 50000004 cycles: 16036857 (Simulation time: 0 hr 1 min 49 sec) 

Heartbeat CPU 0 instructions: 60000000 cycles: 23503615 heartbeat IPC: 1.33927 cumulative IPC: 1.33927 (Simulation time: 0 hr 2 min 10 sec) 
Heartbeat CPU 0 instructions: 70000002 cycles: 31148619 heartbeat IPC: 1.30804 cumulative IPC: 1.32347 (Simulation time: 0 hr 2 min 31 sec) 
Heartbeat CPU 0 instructions: 80000003 cycles: 38268663 heartbeat IPC: 1.40449 cumulative IPC: 1.34942 (Simulation time: 0 hr 2 min 53 sec) 
Heartbeat CPU 0 instructions: 90000003 cycles: 45571619 heartbeat IPC: 1.36931 cumulative IPC: 1.35434 (Simulation time: 0 hr 3 min 14 sec) 
Heartbeat CPU 0 instructions: 100000003 cycles: 52883096 heartbeat IPC: 1.36771 cumulative IPC: 1.35699 (Simulation time: 0 hr 3 min 35 sec) 
Finished CPU 0 instructions: 50000003 cycles: 36846240 cumulative IPC: 1.35699 (Simulation time: 0 hr 3 min 35 sec) 

ChampSim completed all CPUs

Region of Interest Statistics

CPU 0 cumulative IPC: 1.35699 instructions: 50000003 cycles: 36846240
L1D TOTAL     ACCESS:   17324897  HIT:   16258456  MISS:    1066441
L1D LOAD      ACCESS:    6317554  HIT:    5816357  MISS:     501197
L1D RFO       ACCESS:    4930324  HIT:    4850089  MISS:      80235
L1D PREFETCH  ACCESS:    6077019  HIT:    5592010  MISS:     485009
L1D WRITEBACK ACCESS:          0  HIT:          0  MISS:          0
L1D PREFETCH  REQUESTED:    6352269  ISSUED:    6257820  USEFUL:     133379  USELESS:     351639
L1D AVERAGE MISS LATENCY: 41.4223 cycles
L1I TOTAL     ACCESS:   10956159  HIT:    8955738  MISS:    2000421
L1I LOAD      ACCESS:    8677754  HIT:    8502804  MISS:     174950
L1I RFO       ACCESS:          0  HIT:          0  MISS:          0
L1I PREFETCH  ACCESS:    2278405  HIT:     452934  MISS:    1825471
L1I WRITEBACK ACCESS:          0  HIT:          0  MISS:          0
L1I PREFETCH  REQUESTED:    2599761  ISSUED:    2599761  USEFUL:    1290248  USELESS:     535234
L1I AVERAGE MISS LATENCY: 28.927 cycles
L2C TOTAL     ACCESS:    3975516  HIT:    2671742  MISS:    1303774
L2C LOAD      ACCESS:     555518  HIT:     265379  MISS:     290139
L2C RFO       ACCESS:      78835  HIT:      31854  MISS:      46981
L2C PREFETCH  ACCESS:    3065380  HIT:    2099946  MISS:     965434
L2C WRITEBACK ACCESS:     275783  HIT:     274563  MISS:       1220
L2C PREFETCH  REQUESTED:    2766165  ISSUED:    2762013  USEFUL:      29115  USELESS:     936175
L2C AVERAGE MISS LATENCY: 45.1786 cycles
LLC TOTAL     ACCESS:    2381301  HIT:    2234876  MISS:     146425
LLC LOAD      ACCESS:     290039  HIT:     267912  MISS:      22127
LLC RFO       ACCESS:      46973  HIT:      37586  MISS:       9387
LLC PREFETCH  ACCESS:    1873786  HIT:    1759064  MISS:     114722
LLC WRITEBACK ACCESS:     170503  HIT:     170314  MISS:        189
LLC PREFETCH  REQUESTED:          0  ISSUED:          0  USEFUL:      10287  USELESS:     103144
LLC AVERAGE MISS LATENCY: 173.36 cycles
Major fault: 0 Minor fault: 6200
CPU 0 L1D next line prefetcher final stats

DRAM Statistics
 CHANNEL 0
 RQ ROW_BUFFER_HIT:      23985  ROW_BUFFER_MISS:     122241
 DBUS_CONGESTED:      65271
 WQ ROW_BUFFER_HIT:      11560  ROW_BUFFER_MISS:      49984  FULL:          0

 AVG_CONGESTED_CYCLE: 5

CPU 0 Branch Prediction Accuracy: 99.4114% MPKI: 1.0933 Average ROB Occupancy at Mispredict: 119.688

Branch types
NOT_BRANCH: 40713258 81.4265%
BRANCH_DIRECT_JUMP: 463701 0.927402%
BRANCH_INDIRECT: 146544 0.293088%
BRANCH_CONDITIONAL: 6981953 13.9639%
BRANCH_DIRECT_CALL: 665005 1.33001%
BRANCH_INDIRECT_CALL: 165152 0.330304%
BRANCH_RETURN: 864314 1.72863%
BRANCH_OTHER: 0 0%

