Initialize SIGNATURE TABLE
ST_SET: 1
ST_WAY: 256
ST_TAG_BIT: 16
ST_TAG_MASK: ffff

Initialize PATTERN TABLE
PT_SET: 512
PT_WAY: 4
SIG_DELTA_BIT: 7
C_SIG_BIT: 4
C_DELTA_BIT: 4

Initialize PREFETCH FILTER
FILTER_SET: 1024

*** ChampSim Multicore Out-of-Order Simulator ***

Warmup Instructions: 50000000
Simulation Instructions: 50000000
Number of CPUs: 1
LLC sets: 2048
LLC ways: 16
Off-chip DRAM Size: 4096 MB Channels: 1 Width: 64-bit Data Rate: 3200 MT/s

CPU 0 runs /Users/gandhardeshpande/Desktop/CSE240C/HW1/ChampSim/ipc1_public/server_010.champsimtrace.xz
CPU 0 L1D next line prefetcher
Heartbeat CPU 0 instructions: 10000000 cycles: 3199294 heartbeat IPC: 3.12569 cumulative IPC: 3.12569 (Simulation time: 0 hr 0 min 22 sec) 
Heartbeat CPU 0 instructions: 20000002 cycles: 6394901 heartbeat IPC: 3.1293 cumulative IPC: 3.12749 (Simulation time: 0 hr 0 min 43 sec) 
Heartbeat CPU 0 instructions: 30000001 cycles: 9593424 heartbeat IPC: 3.12644 cumulative IPC: 3.12714 (Simulation time: 0 hr 1 min 5 sec) 
Heartbeat CPU 0 instructions: 40000000 cycles: 12787589 heartbeat IPC: 3.13071 cumulative IPC: 3.12803 (Simulation time: 0 hr 1 min 26 sec) 
Heartbeat CPU 0 instructions: 50000003 cycles: 15988037 heartbeat IPC: 3.12456 cumulative IPC: 3.12734 (Simulation time: 0 hr 1 min 48 sec) 

Warmup complete CPU 0 instructions: 50000003 cycles: 15988037 (Simulation time: 0 hr 1 min 48 sec) 

Heartbeat CPU 0 instructions: 60000001 cycles: 23115770 heartbeat IPC: 1.40297 cumulative IPC: 1.40297 (Simulation time: 0 hr 2 min 8 sec) 
Heartbeat CPU 0 instructions: 70000002 cycles: 30270895 heartbeat IPC: 1.3976 cumulative IPC: 1.40028 (Simulation time: 0 hr 2 min 30 sec) 
Heartbeat CPU 0 instructions: 80000003 cycles: 37486047 heartbeat IPC: 1.38597 cumulative IPC: 1.39548 (Simulation time: 0 hr 2 min 51 sec) 
Heartbeat CPU 0 instructions: 90000002 cycles: 44479346 heartbeat IPC: 1.42994 cumulative IPC: 1.40394 (Simulation time: 0 hr 3 min 13 sec) 
Heartbeat CPU 0 instructions: 100000003 cycles: 65083725 heartbeat IPC: 0.485334 cumulative IPC: 1.01842 (Simulation time: 0 hr 3 min 44 sec) 
Finished CPU 0 instructions: 50000000 cycles: 49095688 cumulative IPC: 1.01842 (Simulation time: 0 hr 3 min 44 sec) 

ChampSim completed all CPUs

Region of Interest Statistics

CPU 0 cumulative IPC: 1.01842 instructions: 50000000 cycles: 49095688
L1D TOTAL     ACCESS:   19909965  HIT:   16684700  MISS:    3225265
L1D LOAD      ACCESS:    7709664  HIT:    6116228  MISS:    1593436
L1D RFO       ACCESS:    4713814  HIT:    4619453  MISS:      94361
L1D PREFETCH  ACCESS:    7486487  HIT:    5949019  MISS:    1537468
L1D WRITEBACK ACCESS:          0  HIT:          0  MISS:          0
L1D PREFETCH  REQUESTED:    7742976  ISSUED:    7645983  USEFUL:     116833  USELESS:    1420606
L1D AVERAGE MISS LATENCY: 22.3886 cycles
L1I TOTAL     ACCESS:   11855380  HIT:   10168665  MISS:    1686715
L1I LOAD      ACCESS:    9936895  HIT:    9786763  MISS:     150132
L1I RFO       ACCESS:          0  HIT:          0  MISS:          0
L1I PREFETCH  ACCESS:    1918485  HIT:     381902  MISS:    1536583
L1I WRITEBACK ACCESS:          0  HIT:          0  MISS:          0
L1I PREFETCH  REQUESTED:    2188695  ISSUED:    2188695  USEFUL:    1082969  USELESS:     453519
L1I AVERAGE MISS LATENCY: 27.9829 cycles
L2C TOTAL     ACCESS:    6320110  HIT:    5249489  MISS:    1070621
L2C LOAD      ACCESS:    1637719  HIT:    1397725  MISS:     239994
L2C RFO       ACCESS:      93304  HIT:      48966  MISS:      44338
L2C PREFETCH  ACCESS:    4323715  HIT:    3538686  MISS:     785029
L2C WRITEBACK ACCESS:     265372  HIT:     264112  MISS:       1260
L2C PREFETCH  REQUESTED:    5076281  ISSUED:    5073589  USEFUL:      23953  USELESS:     762044
L2C AVERAGE MISS LATENCY: 44.4881 cycles
LLC TOTAL     ACCESS:    2163654  HIT:    2053668  MISS:     109986
LLC LOAD      ACCESS:     239926  HIT:     224850  MISS:      15076
LLC RFO       ACCESS:      44336  HIT:      35928  MISS:       8408
LLC PREFETCH  ACCESS:    1732745  HIT:    1646414  MISS:      86331
LLC WRITEBACK ACCESS:     146647  HIT:     146476  MISS:        171
LLC PREFETCH  REQUESTED:          0  ISSUED:          0  USEFUL:       8340  USELESS:      78373
LLC AVERAGE MISS LATENCY: 174.331 cycles
Major fault: 0 Minor fault: 5593
CPU 0 L1D next line prefetcher final stats

DRAM Statistics
 CHANNEL 0
 RQ ROW_BUFFER_HIT:      17127  ROW_BUFFER_MISS:      92683
 DBUS_CONGESTED:      51432
 WQ ROW_BUFFER_HIT:       9427  ROW_BUFFER_MISS:      42688  FULL:          0

 AVG_CONGESTED_CYCLE: 5

CPU 0 Branch Prediction Accuracy: 99.5528% MPKI: 0.89798 Average ROB Occupancy at Mispredict: 125.773

Branch types
NOT_BRANCH: 39958791 79.9176%
BRANCH_DIRECT_JUMP: 449946 0.899892%
BRANCH_INDIRECT: 140210 0.28042%
BRANCH_CONDITIONAL: 7679677 15.3594%
BRANCH_DIRECT_CALL: 701578 1.40316%
BRANCH_INDIRECT_CALL: 168971 0.337942%
BRANCH_RETURN: 900560 1.80112%
BRANCH_OTHER: 0 0%

