
*** ChampSim Multicore Out-of-Order Simulator ***

Warmup Instructions: 10000000
Simulation Instructions: 100000000
Configuration: 2
Number of CPUs: 1
LLC sets: 2048
LLC ways: 16
Off-chip DRAM Channels: 1 Width: 64-bit Data Rate: 1600 MT/s

CPU 0 runs /datasets/cs240c-wi22-a00-public/data/Assignment2-gz/leslie3d_94B.trace.gz
CPU 0 L1D next line prefetcher
CPU 0 L2C IP-based stride prefetcher
Heartbeat CPU 0 instructions: 1000003 cycles: 597056 heartbeat IPC: 1.67489 cumulative IPC: 1.67489 (Simulation time: 0 hr 0 min 27 sec) 
select_counter is 898
Heartbeat CPU 0 instructions: 2000002 cycles: 1215968 heartbeat IPC: 1.61574 cumulative IPC: 1.64478 (Simulation time: 0 hr 0 min 54 sec) 
select_counter is 648
Heartbeat CPU 0 instructions: 3000002 cycles: 1867804 heartbeat IPC: 1.53413 cumulative IPC: 1.60617 (Simulation time: 0 hr 1 min 25 sec) 
select_counter is 580
Heartbeat CPU 0 instructions: 4000000 cycles: 2519101 heartbeat IPC: 1.53539 cumulative IPC: 1.58787 (Simulation time: 0 hr 1 min 53 sec) 
select_counter is 425
Heartbeat CPU 0 instructions: 5000002 cycles: 3084107 heartbeat IPC: 1.7699 cumulative IPC: 1.62122 (Simulation time: 0 hr 2 min 21 sec) 
select_counter is 427
Heartbeat CPU 0 instructions: 6000002 cycles: 3734756 heartbeat IPC: 1.53693 cumulative IPC: 1.60653 (Simulation time: 0 hr 2 min 49 sec) 
select_counter is 418
Heartbeat CPU 0 instructions: 7000000 cycles: 4385460 heartbeat IPC: 1.53679 cumulative IPC: 1.59618 (Simulation time: 0 hr 3 min 16 sec) 
select_counter is 384
Heartbeat CPU 0 instructions: 8000000 cycles: 4950466 heartbeat IPC: 1.76989 cumulative IPC: 1.61601 (Simulation time: 0 hr 3 min 41 sec) 
select_counter is 334
Heartbeat CPU 0 instructions: 9000000 cycles: 5601322 heartbeat IPC: 1.53644 cumulative IPC: 1.60676 (Simulation time: 0 hr 4 min 10 sec) 
select_counter is 298
Heartbeat CPU 0 instructions: 10000001 cycles: 6252512 heartbeat IPC: 1.53565 cumulative IPC: 1.59936 (Simulation time: 0 hr 4 min 37 sec) 
select_counter is 253

Warmup complete CPU 0 instructions: 10000001 cycles: 6252512 (Simulation time: 0 hr 4 min 37 sec) 

Heartbeat CPU 0 instructions: 11000000 cycles: 7467625 heartbeat IPC: 0.822968 cumulative IPC: 0.822968 (Simulation time: 0 hr 5 min 10 sec) 
select_counter is 193
Heartbeat CPU 0 instructions: 12000000 cycles: 9144876 heartbeat IPC: 0.596214 cumulative IPC: 0.691476 (Simulation time: 0 hr 5 min 42 sec) 
select_counter is 2005
Heartbeat CPU 0 instructions: 13000000 cycles: 11044987 heartbeat IPC: 0.526285 cumulative IPC: 0.625981 (Simulation time: 0 hr 6 min 13 sec) 
select_counter is 1682
Heartbeat CPU 0 instructions: 14000001 cycles: 13116715 heartbeat IPC: 0.482689 cumulative IPC: 0.582733 (Simulation time: 0 hr 6 min 43 sec) 
select_counter is 1743
Heartbeat CPU 0 instructions: 15000001 cycles: 15161785 heartbeat IPC: 0.488981 cumulative IPC: 0.561213 (Simulation time: 0 hr 7 min 14 sec) 
select_counter is 2045
Heartbeat CPU 0 instructions: 16000000 cycles: 17200469 heartbeat IPC: 0.490512 cumulative IPC: 0.548047 (Simulation time: 0 hr 7 min 46 sec) 
select_counter is 2043
Heartbeat CPU 0 instructions: 17000000 cycles: 19141850 heartbeat IPC: 0.515097 cumulative IPC: 0.543084 (Simulation time: 0 hr 8 min 16 sec) 
select_counter is 1894
Heartbeat CPU 0 instructions: 18000002 cycles: 21133914 heartbeat IPC: 0.501993 cumulative IPC: 0.537584 (Simulation time: 0 hr 8 min 45 sec) 
select_counter is 1802
Heartbeat CPU 0 instructions: 19000001 cycles: 23145387 heartbeat IPC: 0.497148 cumulative IPC: 0.532769 (Simulation time: 0 hr 9 min 17 sec) 
select_counter is 1696
Heartbeat CPU 0 instructions: 20000000 cycles: 25138282 heartbeat IPC: 0.501782 cumulative IPC: 0.529499 (Simulation time: 0 hr 9 min 49 sec) 
select_counter is 1605
Heartbeat CPU 0 instructions: 21000002 cycles: 27090473 heartbeat IPC: 0.512246 cumulative IPC: 0.527883 (Simulation time: 0 hr 10 min 21 sec) 
select_counter is 1493
Heartbeat CPU 0 instructions: 22000002 cycles: 29380332 heartbeat IPC: 0.436708 cumulative IPC: 0.518856 (Simulation time: 0 hr 10 min 54 sec) 
select_counter is 2037
Heartbeat CPU 0 instructions: 23000000 cycles: 31813763 heartbeat IPC: 0.410942 cumulative IPC: 0.508582 (Simulation time: 0 hr 11 min 28 sec) 
select_counter is 2045
Heartbeat CPU 0 instructions: 24000000 cycles: 34255429 heartbeat IPC: 0.409556 cumulative IPC: 0.499948 (Simulation time: 0 hr 11 min 59 sec) 
select_counter is 2047
Heartbeat CPU 0 instructions: 25000000 cycles: 36676744 heartbeat IPC: 0.412999 cumulative IPC: 0.493028 (Simulation time: 0 hr 12 min 30 sec) 
select_counter is 2020
Heartbeat CPU 0 instructions: 26000002 cycles: 38966136 heartbeat IPC: 0.436798 cumulative IPC: 0.489093 (Simulation time: 0 hr 13 min 5 sec) 
select_counter is 2043
Heartbeat CPU 0 instructions: 27000001 cycles: 41306280 heartbeat IPC: 0.427324 cumulative IPC: 0.484969 (Simulation time: 0 hr 13 min 44 sec) 
select_counter is 2044
Heartbeat CPU 0 instructions: 28000000 cycles: 43688441 heartbeat IPC: 0.419786 cumulative IPC: 0.480821 (Simulation time: 0 hr 14 min 20 sec) 
select_counter is 2047
Heartbeat CPU 0 instructions: 29000000 cycles: 46055050 heartbeat IPC: 0.422545 cumulative IPC: 0.477356 (Simulation time: 0 hr 15 min 0 sec) 
select_counter is 2046
Heartbeat CPU 0 instructions: 30000000 cycles: 47478099 heartbeat IPC: 0.702716 cumulative IPC: 0.485136 (Simulation time: 0 hr 15 min 29 sec) 
select_counter is 1914
Heartbeat CPU 0 instructions: 31000002 cycles: 48813806 heartbeat IPC: 0.748669 cumulative IPC: 0.493406 (Simulation time: 0 hr 15 min 58 sec) 
select_counter is 1715
Heartbeat CPU 0 instructions: 32000000 cycles: 50170883 heartbeat IPC: 0.736876 cumulative IPC: 0.500929 (Simulation time: 0 hr 16 min 29 sec) 
select_counter is 1496
Heartbeat CPU 0 instructions: 33000001 cycles: 51509404 heartbeat IPC: 0.747094 cumulative IPC: 0.50821 (Simulation time: 0 hr 17 min 0 sec) 
select_counter is 1322
Heartbeat CPU 0 instructions: 34000003 cycles: 52866078 heartbeat IPC: 0.737098 cumulative IPC: 0.514872 (Simulation time: 0 hr 17 min 30 sec) 
select_counter is 1160
Heartbeat CPU 0 instructions: 35000000 cycles: 54195554 heartbeat IPC: 0.752174 cumulative IPC: 0.521452 (Simulation time: 0 hr 18 min 2 sec) 
select_counter is 946
Heartbeat CPU 0 instructions: 36000000 cycles: 55579778 heartbeat IPC: 0.722426 cumulative IPC: 0.527092 (Simulation time: 0 hr 18 min 29 sec) 
select_counter is 803
Heartbeat CPU 0 instructions: 37000003 cycles: 56929776 heartbeat IPC: 0.740744 cumulative IPC: 0.532783 (Simulation time: 0 hr 18 min 59 sec) 
select_counter is 618
Heartbeat CPU 0 instructions: 38000000 cycles: 58296310 heartbeat IPC: 0.731776 cumulative IPC: 0.538008 (Simulation time: 0 hr 19 min 28 sec) 
select_counter is 407
Heartbeat CPU 0 instructions: 39000000 cycles: 59595337 heartbeat IPC: 0.769807 cumulative IPC: 0.543653 (Simulation time: 0 hr 19 min 58 sec) 
select_counter is 256
Heartbeat CPU 0 instructions: 40000000 cycles: 60854989 heartbeat IPC: 0.79387 cumulative IPC: 0.549426 (Simulation time: 0 hr 20 min 27 sec) 
select_counter is 125
Heartbeat CPU 0 instructions: 41000002 cycles: 62162450 heartbeat IPC: 0.764843 cumulative IPC: 0.554463 (Simulation time: 0 hr 20 min 54 sec) 
select_counter is 1996
Heartbeat CPU 0 instructions: 42000002 cycles: 63454149 heartbeat IPC: 0.774174 cumulative IPC: 0.559425 (Simulation time: 0 hr 21 min 23 sec) 
select_counter is 1820
Heartbeat CPU 0 instructions: 43000002 cycles: 64819843 heartbeat IPC: 0.732228 cumulative IPC: 0.563454 (Simulation time: 0 hr 21 min 56 sec) 
select_counter is 1623
Heartbeat CPU 0 instructions: 44000000 cycles: 66153160 heartbeat IPC: 0.750008 cumulative IPC: 0.567607 (Simulation time: 0 hr 22 min 25 sec) 
select_counter is 1382
Heartbeat CPU 0 instructions: 45000003 cycles: 67511400 heartbeat IPC: 0.736249 cumulative IPC: 0.571346 (Simulation time: 0 hr 22 min 55 sec) 
select_counter is 1179
Heartbeat CPU 0 instructions: 46000001 cycles: 68909105 heartbeat IPC: 0.715457 cumulative IPC: 0.57456 (Simulation time: 0 hr 23 min 24 sec) 
select_counter is 965
Heartbeat CPU 0 instructions: 47000000 cycles: 70244575 heartbeat IPC: 0.748799 cumulative IPC: 0.578197 (Simulation time: 0 hr 23 min 55 sec) 
select_counter is 810
Heartbeat CPU 0 instructions: 48000000 cycles: 71627630 heartbeat IPC: 0.723037 cumulative IPC: 0.581261 (Simulation time: 0 hr 24 min 23 sec) 
select_counter is 546
Heartbeat CPU 0 instructions: 49000001 cycles: 72951551 heartbeat IPC: 0.755333 cumulative IPC: 0.584716 (Simulation time: 0 hr 24 min 54 sec) 
select_counter is 291
Heartbeat CPU 0 instructions: 50000001 cycles: 74260109 heartbeat IPC: 0.7642 cumulative IPC: 0.58817 (Simulation time: 0 hr 25 min 23 sec) 
select_counter is 109
Heartbeat CPU 0 instructions: 51000003 cycles: 75539553 heartbeat IPC: 0.781591 cumulative IPC: 0.591741 (Simulation time: 0 hr 25 min 49 sec) 
select_counter is 1975
Heartbeat CPU 0 instructions: 52000000 cycles: 76823884 heartbeat IPC: 0.778613 cumulative IPC: 0.595142 (Simulation time: 0 hr 26 min 16 sec) 
select_counter is 1868
Heartbeat CPU 0 instructions: 53000002 cycles: 78191036 heartbeat IPC: 0.731449 cumulative IPC: 0.597733 (Simulation time: 0 hr 26 min 47 sec) 
select_counter is 1732
Heartbeat CPU 0 instructions: 54000001 cycles: 79510497 heartbeat IPC: 0.757884 cumulative IPC: 0.600617 (Simulation time: 0 hr 27 min 15 sec) 
select_counter is 1555
Heartbeat CPU 0 instructions: 55000000 cycles: 80879404 heartbeat IPC: 0.730509 cumulative IPC: 0.603 (Simulation time: 0 hr 27 min 44 sec) 
select_counter is 1421
Heartbeat CPU 0 instructions: 56000000 cycles: 82223175 heartbeat IPC: 0.744174 cumulative IPC: 0.605497 (Simulation time: 0 hr 28 min 15 sec) 
select_counter is 1261
Heartbeat CPU 0 instructions: 57000000 cycles: 83581454 heartbeat IPC: 0.736226 cumulative IPC: 0.607793 (Simulation time: 0 hr 28 min 45 sec) 
select_counter is 1140
Heartbeat CPU 0 instructions: 58000001 cycles: 84920003 heartbeat IPC: 0.747078 cumulative IPC: 0.610163 (Simulation time: 0 hr 29 min 18 sec) 
select_counter is 1017
Heartbeat CPU 0 instructions: 59000003 cycles: 86226581 heartbeat IPC: 0.76536 cumulative IPC: 0.612699 (Simulation time: 0 hr 29 min 47 sec) 
select_counter is 902
Heartbeat CPU 0 instructions: 60000000 cycles: 87578192 heartbeat IPC: 0.739856 cumulative IPC: 0.614812 (Simulation time: 0 hr 30 min 15 sec) 
select_counter is 753
Heartbeat CPU 0 instructions: 61000001 cycles: 88906885 heartbeat IPC: 0.75262 cumulative IPC: 0.617027 (Simulation time: 0 hr 30 min 47 sec) 
select_counter is 607
Heartbeat CPU 0 instructions: 62000002 cycles: 90250366 heartbeat IPC: 0.744336 cumulative IPC: 0.619063 (Simulation time: 0 hr 31 min 19 sec) 
select_counter is 483
Heartbeat CPU 0 instructions: 63000001 cycles: 91534929 heartbeat IPC: 0.778474 cumulative IPC: 0.621465 (Simulation time: 0 hr 31 min 49 sec) 
select_counter is 348
Heartbeat CPU 0 instructions: 64000000 cycles: 92844516 heartbeat IPC: 0.763599 cumulative IPC: 0.623614 (Simulation time: 0 hr 32 min 16 sec) 
select_counter is 190
Heartbeat CPU 0 instructions: 65000000 cycles: 94146157 heartbeat IPC: 0.768261 cumulative IPC: 0.625756 (Simulation time: 0 hr 32 min 45 sec) 
select_counter is 79
Heartbeat CPU 0 instructions: 66000000 cycles: 95454539 heartbeat IPC: 0.764303 cumulative IPC: 0.627788 (Simulation time: 0 hr 33 min 15 sec) 
select_counter is 2011
Heartbeat CPU 0 instructions: 67000003 cycles: 96772439 heartbeat IPC: 0.758785 cumulative IPC: 0.629696 (Simulation time: 0 hr 33 min 45 sec) 
select_counter is 1871
Heartbeat CPU 0 instructions: 68000000 cycles: 98106200 heartbeat IPC: 0.749757 cumulative IPC: 0.631439 (Simulation time: 0 hr 34 min 17 sec) 
select_counter is 1777
Heartbeat CPU 0 instructions: 69000000 cycles: 99442851 heartbeat IPC: 0.748138 cumulative IPC: 0.633113 (Simulation time: 0 hr 34 min 48 sec) 
select_counter is 1678
Heartbeat CPU 0 instructions: 70000001 cycles: 100776219 heartbeat IPC: 0.749981 cumulative IPC: 0.634761 (Simulation time: 0 hr 35 min 20 sec) 
select_counter is 1559
Heartbeat CPU 0 instructions: 71000002 cycles: 102134726 heartbeat IPC: 0.736103 cumulative IPC: 0.636197 (Simulation time: 0 hr 35 min 51 sec) 
select_counter is 1450
Heartbeat CPU 0 instructions: 72000000 cycles: 103463713 heartbeat IPC: 0.752451 cumulative IPC: 0.637787 (Simulation time: 0 hr 36 min 19 sec) 
select_counter is 1290
Heartbeat CPU 0 instructions: 73000000 cycles: 104816024 heartbeat IPC: 0.739475 cumulative IPC: 0.639182 (Simulation time: 0 hr 36 min 42 sec) 
select_counter is 1177
Heartbeat CPU 0 instructions: 74000000 cycles: 106149694 heartbeat IPC: 0.749811 cumulative IPC: 0.640659 (Simulation time: 0 hr 37 min 8 sec) 
select_counter is 986
Heartbeat CPU 0 instructions: 75000002 cycles: 107468028 heartbeat IPC: 0.758535 cumulative IPC: 0.642194 (Simulation time: 0 hr 37 min 34 sec) 
select_counter is 873
Heartbeat CPU 0 instructions: 76000000 cycles: 108819264 heartbeat IPC: 0.740062 cumulative IPC: 0.643483 (Simulation time: 0 hr 37 min 58 sec) 
select_counter is 771
Heartbeat CPU 0 instructions: 77000000 cycles: 110151153 heartbeat IPC: 0.750813 cumulative IPC: 0.644859 (Simulation time: 0 hr 38 min 22 sec) 
select_counter is 676
Heartbeat CPU 0 instructions: 78000003 cycles: 111536407 heartbeat IPC: 0.721891 cumulative IPC: 0.645873 (Simulation time: 0 hr 38 min 45 sec) 
select_counter is 505
Heartbeat CPU 0 instructions: 79000000 cycles: 113011732 heartbeat IPC: 0.677815 cumulative IPC: 0.646314 (Simulation time: 0 hr 39 min 7 sec) 
select_counter is 418
Heartbeat CPU 0 instructions: 80000000 cycles: 114632506 heartbeat IPC: 0.616989 cumulative IPC: 0.645876 (Simulation time: 0 hr 39 min 29 sec) 
select_counter is 628
Heartbeat CPU 0 instructions: 81000002 cycles: 116214537 heartbeat IPC: 0.6321 cumulative IPC: 0.645677 (Simulation time: 0 hr 39 min 51 sec) 
select_counter is 827
Heartbeat CPU 0 instructions: 82000003 cycles: 117863909 heartbeat IPC: 0.606292 cumulative IPC: 0.645095 (Simulation time: 0 hr 40 min 13 sec) 
select_counter is 1017
Heartbeat CPU 0 instructions: 83000003 cycles: 119529159 heartbeat IPC: 0.60051 cumulative IPC: 0.64444 (Simulation time: 0 hr 40 min 31 sec) 
select_counter is 1212
Heartbeat CPU 0 instructions: 84000000 cycles: 121152718 heartbeat IPC: 0.615929 cumulative IPC: 0.644037 (Simulation time: 0 hr 40 min 48 sec) 
select_counter is 1392
Heartbeat CPU 0 instructions: 85000001 cycles: 122806155 heartbeat IPC: 0.604801 cumulative IPC: 0.643481 (Simulation time: 0 hr 41 min 6 sec) 
select_counter is 1607
Heartbeat CPU 0 instructions: 86000002 cycles: 124435683 heartbeat IPC: 0.613675 cumulative IPC: 0.64307 (Simulation time: 0 hr 41 min 22 sec) 
select_counter is 1822
Heartbeat CPU 0 instructions: 87000000 cycles: 126075563 heartbeat IPC: 0.6098 cumulative IPC: 0.642614 (Simulation time: 0 hr 41 min 38 sec) 
select_counter is 1955
Heartbeat CPU 0 instructions: 88000000 cycles: 127732101 heartbeat IPC: 0.603669 cumulative IPC: 0.642083 (Simulation time: 0 hr 41 min 54 sec) 
select_counter is 2022
Heartbeat CPU 0 instructions: 89000002 cycles: 129358746 heartbeat IPC: 0.614763 cumulative IPC: 0.641722 (Simulation time: 0 hr 42 min 9 sec) 
select_counter is 2026
Heartbeat CPU 0 instructions: 90000001 cycles: 130992958 heartbeat IPC: 0.611915 cumulative IPC: 0.641332 (Simulation time: 0 hr 42 min 24 sec) 
select_counter is 2014
Heartbeat CPU 0 instructions: 91000003 cycles: 132622030 heartbeat IPC: 0.613848 cumulative IPC: 0.640977 (Simulation time: 0 hr 42 min 41 sec) 
select_counter is 1992
Heartbeat CPU 0 instructions: 92000000 cycles: 134261500 heartbeat IPC: 0.609951 cumulative IPC: 0.64058 (Simulation time: 0 hr 42 min 57 sec) 
select_counter is 1987
Heartbeat CPU 0 instructions: 93000001 cycles: 135926987 heartbeat IPC: 0.600426 cumulative IPC: 0.640064 (Simulation time: 0 hr 43 min 14 sec) 
select_counter is 1973
Heartbeat CPU 0 instructions: 94000003 cycles: 137575737 heartbeat IPC: 0.606521 cumulative IPC: 0.639643 (Simulation time: 0 hr 43 min 31 sec) 
select_counter is 1953
Heartbeat CPU 0 instructions: 95000002 cycles: 139272773 heartbeat IPC: 0.589262 cumulative IPC: 0.639 (Simulation time: 0 hr 43 min 48 sec) 
select_counter is 1926
Heartbeat CPU 0 instructions: 96000000 cycles: 140916798 heartbeat IPC: 0.608262 cumulative IPC: 0.638625 (Simulation time: 0 hr 44 min 1 sec) 
select_counter is 1911
Heartbeat CPU 0 instructions: 97000003 cycles: 142930456 heartbeat IPC: 0.49661 cumulative IPC: 0.636533 (Simulation time: 0 hr 44 min 15 sec) 
select_counter is 1913
Heartbeat CPU 0 instructions: 98000002 cycles: 148657267 heartbeat IPC: 0.174617 cumulative IPC: 0.617957 (Simulation time: 0 hr 44 min 40 sec) 
select_counter is 2045
Heartbeat CPU 0 instructions: 99000000 cycles: 151815388 heartbeat IPC: 0.316643 cumulative IPC: 0.61142 (Simulation time: 0 hr 44 min 59 sec) 
select_counter is 2045
Heartbeat CPU 0 instructions: 100000000 cycles: 153431258 heartbeat IPC: 0.618862 cumulative IPC: 0.611501 (Simulation time: 0 hr 45 min 7 sec) 
select_counter is 2024
Heartbeat CPU 0 instructions: 101000002 cycles: 154695727 heartbeat IPC: 0.790847 cumulative IPC: 0.613029 (Simulation time: 0 hr 45 min 13 sec) 
select_counter is 1991
Heartbeat CPU 0 instructions: 102000003 cycles: 156094003 heartbeat IPC: 0.715167 cumulative IPC: 0.613982 (Simulation time: 0 hr 45 min 19 sec) 
select_counter is 2046
Heartbeat CPU 0 instructions: 103000002 cycles: 157546504 heartbeat IPC: 0.688467 cumulative IPC: 0.614697 (Simulation time: 0 hr 45 min 26 sec) 
select_counter is 2046
Heartbeat CPU 0 instructions: 104000000 cycles: 159032213 heartbeat IPC: 0.673078 cumulative IPC: 0.615265 (Simulation time: 0 hr 45 min 32 sec) 
select_counter is 2045
Heartbeat CPU 0 instructions: 105000001 cycles: 160577821 heartbeat IPC: 0.646995 cumulative IPC: 0.615583 (Simulation time: 0 hr 45 min 39 sec) 
select_counter is 2047
Heartbeat CPU 0 instructions: 106000001 cycles: 162128584 heartbeat IPC: 0.644844 cumulative IPC: 0.615874 (Simulation time: 0 hr 45 min 45 sec) 
select_counter is 2047
Heartbeat CPU 0 instructions: 107000001 cycles: 163666609 heartbeat IPC: 0.650185 cumulative IPC: 0.616209 (Simulation time: 0 hr 45 min 50 sec) 
select_counter is 2045
Heartbeat CPU 0 instructions: 108000000 cycles: 165212867 heartbeat IPC: 0.646722 cumulative IPC: 0.616506 (Simulation time: 0 hr 45 min 55 sec) 
select_counter is 2045
Heartbeat CPU 0 instructions: 109000001 cycles: 166730364 heartbeat IPC: 0.658981 cumulative IPC: 0.616908 (Simulation time: 0 hr 45 min 59 sec) 
select_counter is 2045
Heartbeat CPU 0 instructions: 110000001 cycles: 168258769 heartbeat IPC: 0.654277 cumulative IPC: 0.61726 (Simulation time: 0 hr 46 min 2 sec) 
select_counter is 2046
Finished CPU 0 instructions: 100000000 cycles: 162006257 cummulative IPC: 0.61726 (Simulation time: 0 hr 46 min 2 sec) 

ChampSim completed all CPUs

Region of Interest Statistics

CPU 0 cummulative IPC: 0.61726 instructions: 100000000 cycles: 162006257
LLC TOTAL     ACCESS:    4606008  HIT:    1046681  MISS:    3559327
LLC LOAD      ACCESS:     464667  HIT:      67028  MISS:     397639
LLC RFO       ACCESS:     743474  HIT:      94548  MISS:     648926
LLC PREFETCH  ACCESS:    2298092  HIT:     220173  MISS:    2077919
LLC WRITEBACK ACCESS:    1099775  HIT:     664932  MISS:     434843
Ship samples: 
19, 33, 87, 122, 129, 171, 221, 251, 283, 306, 339, 374, 387, 443, 462, 497, 531, 564, 597, 632, 670, 679, 733, 767, 768, 808, 844, 877, 917, 934, 983, 996, 1048, 1087, 1101, 1125, 1180, 1197, 1247, 1279, 1294, 1341, 1344, 1377, 1427, 1440, 1480, 1524, 1567, 1575, 1609, 1661, 1677, 1700, 1744, 1789, 1814, 1834, 1863, 1919, 1935, 1956, 1994, 2040, 
Lime duel samples: 
27, 37, 83, 98, 141, 175, 208, 249, 259, 318, 335, 379, 409, 439, 470, 494, 513, 562, 586, 622, 662, 675, 731, 738, 792, 817, 852, 894, 912, 936, 963, 1015, 1034, 1077, 1095, 1141, 1168, 1184, 1246, 1254, 1296, 1331, 1356, 1389, 1417, 1444, 1482, 1514, 1536, 1587, 1612, 1644, 1669, 1706, 1740, 1763, 1822, 1850, 1878, 1899, 1946, 1983, 2007, 2041, 
Lime samples: 
27, 98, 208, 318, 409, 494, 586, 675, 792, 894, 963, 1077, 1168, 1254, 1356, 1444, 1536, 1644, 1740, 1850, 1946, 
Insertion Distribution: 
	LOAD 2796 0 0 0 0 0 6385 35921 
	RFO 504 0 0 0 0 0 7735 26815 
	PREF 0 15479 0 0 0 0 41652 276635 
	WRITEBACK 0 0 0 0 0 0 0 78173 
Total Prefetch Downgrades: 8738
