
*** ChampSim Multicore Out-of-Order Simulator ***

Warmup Instructions: 10000000
Simulation Instructions: 100000000
Configuration: 2
Number of CPUs: 1
LLC sets: 2048
LLC ways: 16
Off-chip DRAM Channels: 1 Width: 64-bit Data Rate: 1600 MT/s

CPU 0 runs /datasets/cs240c-wi22-a00-public/data/Assignment2-gz/calculix_3812B.trace.gz
CPU 0 L1D next line prefetcher
CPU 0 L2C IP-based stride prefetcher
Heartbeat CPU 0 instructions: 1000001 cycles: 478689 heartbeat IPC: 2.08904 cumulative IPC: 2.08904 (Simulation time: 0 hr 0 min 22 sec) 
select_counter is 795
Heartbeat CPU 0 instructions: 2000002 cycles: 956487 heartbeat IPC: 2.09294 cumulative IPC: 2.09099 (Simulation time: 0 hr 0 min 49 sec) 
select_counter is 674
Heartbeat CPU 0 instructions: 3000002 cycles: 1435002 heartbeat IPC: 2.0898 cumulative IPC: 2.09059 (Simulation time: 0 hr 1 min 13 sec) 
select_counter is 659
Heartbeat CPU 0 instructions: 4000000 cycles: 1907485 heartbeat IPC: 2.11647 cumulative IPC: 2.097 (Simulation time: 0 hr 1 min 37 sec) 
select_counter is 659
Heartbeat CPU 0 instructions: 5000000 cycles: 2356236 heartbeat IPC: 2.22841 cumulative IPC: 2.12203 (Simulation time: 0 hr 1 min 57 sec) 
select_counter is 242
Heartbeat CPU 0 instructions: 6000003 cycles: 2761604 heartbeat IPC: 2.4669 cumulative IPC: 2.17265 (Simulation time: 0 hr 2 min 12 sec) 
select_counter is 227
Heartbeat CPU 0 instructions: 7000002 cycles: 3154714 heartbeat IPC: 2.54381 cumulative IPC: 2.2189 (Simulation time: 0 hr 2 min 27 sec) 
select_counter is 208
Heartbeat CPU 0 instructions: 8000000 cycles: 3547852 heartbeat IPC: 2.54363 cumulative IPC: 2.25489 (Simulation time: 0 hr 2 min 42 sec) 
select_counter is 198
Heartbeat CPU 0 instructions: 9000000 cycles: 3940841 heartbeat IPC: 2.5446 cumulative IPC: 2.28378 (Simulation time: 0 hr 2 min 56 sec) 
select_counter is 189
Heartbeat CPU 0 instructions: 10000003 cycles: 4333931 heartbeat IPC: 2.54395 cumulative IPC: 2.30737 (Simulation time: 0 hr 3 min 11 sec) 
select_counter is 167

Warmup complete CPU 0 instructions: 10000003 cycles: 4333931 (Simulation time: 0 hr 3 min 11 sec) 

Heartbeat CPU 0 instructions: 11000001 cycles: 4771440 heartbeat IPC: 2.28566 cumulative IPC: 2.28566 (Simulation time: 0 hr 3 min 29 sec) 
select_counter is 154
Heartbeat CPU 0 instructions: 12000000 cycles: 5207436 heartbeat IPC: 2.2936 cumulative IPC: 2.28962 (Simulation time: 0 hr 3 min 47 sec) 
select_counter is 154
Heartbeat CPU 0 instructions: 13000002 cycles: 5643204 heartbeat IPC: 2.2948 cumulative IPC: 2.29135 (Simulation time: 0 hr 4 min 6 sec) 
select_counter is 155
Heartbeat CPU 0 instructions: 14000000 cycles: 6437989 heartbeat IPC: 1.2582 cumulative IPC: 1.90109 (Simulation time: 0 hr 4 min 29 sec) 
select_counter is 138
Heartbeat CPU 0 instructions: 15000003 cycles: 6931675 heartbeat IPC: 2.02559 cumulative IPC: 1.92475 (Simulation time: 0 hr 4 min 47 sec) 
select_counter is 2019
Heartbeat CPU 0 instructions: 16000000 cycles: 7401436 heartbeat IPC: 2.12874 cumulative IPC: 1.95599 (Simulation time: 0 hr 5 min 7 sec) 
select_counter is 1803
Heartbeat CPU 0 instructions: 17000001 cycles: 7864124 heartbeat IPC: 2.16129 cumulative IPC: 1.98289 (Simulation time: 0 hr 5 min 27 sec) 
select_counter is 1604
Heartbeat CPU 0 instructions: 18000001 cycles: 8316688 heartbeat IPC: 2.20963 cumulative IPC: 2.00866 (Simulation time: 0 hr 5 min 45 sec) 
select_counter is 1461
Heartbeat CPU 0 instructions: 19000001 cycles: 8772431 heartbeat IPC: 2.19422 cumulative IPC: 2.02771 (Simulation time: 0 hr 6 min 2 sec) 
select_counter is 1304
Heartbeat CPU 0 instructions: 20000000 cycles: 9347108 heartbeat IPC: 1.74011 cumulative IPC: 1.99474 (Simulation time: 0 hr 6 min 20 sec) 
select_counter is 1177
Heartbeat CPU 0 instructions: 21000003 cycles: 9867355 heartbeat IPC: 1.92217 cumulative IPC: 1.98792 (Simulation time: 0 hr 6 min 37 sec) 
select_counter is 997
Heartbeat CPU 0 instructions: 22000000 cycles: 10395755 heartbeat IPC: 1.8925 cumulative IPC: 1.9796 (Simulation time: 0 hr 6 min 55 sec) 
select_counter is 810
Heartbeat CPU 0 instructions: 23000001 cycles: 10916838 heartbeat IPC: 1.91908 cumulative IPC: 1.97481 (Simulation time: 0 hr 7 min 17 sec) 
select_counter is 624
Heartbeat CPU 0 instructions: 24000000 cycles: 11442361 heartbeat IPC: 1.90286 cumulative IPC: 1.96949 (Simulation time: 0 hr 7 min 39 sec) 
select_counter is 426
Heartbeat CPU 0 instructions: 25000003 cycles: 11976705 heartbeat IPC: 1.87146 cumulative IPC: 1.96264 (Simulation time: 0 hr 8 min 0 sec) 
select_counter is 351
Heartbeat CPU 0 instructions: 26000003 cycles: 12523743 heartbeat IPC: 1.82803 cumulative IPC: 1.95365 (Simulation time: 0 hr 8 min 19 sec) 
select_counter is 346
Heartbeat CPU 0 instructions: 27000000 cycles: 13056968 heartbeat IPC: 1.87538 cumulative IPC: 1.94886 (Simulation time: 0 hr 8 min 37 sec) 
select_counter is 336
Heartbeat CPU 0 instructions: 28000000 cycles: 13699359 heartbeat IPC: 1.55668 cumulative IPC: 1.92196 (Simulation time: 0 hr 8 min 58 sec) 
select_counter is 335
Heartbeat CPU 0 instructions: 29000002 cycles: 14177274 heartbeat IPC: 2.09243 cumulative IPC: 1.93024 (Simulation time: 0 hr 9 min 16 sec) 
select_counter is 338
Heartbeat CPU 0 instructions: 30000001 cycles: 14730883 heartbeat IPC: 1.80633 cumulative IPC: 1.92364 (Simulation time: 0 hr 9 min 36 sec) 
select_counter is 334
Heartbeat CPU 0 instructions: 31000001 cycles: 15280043 heartbeat IPC: 1.82096 cumulative IPC: 1.91849 (Simulation time: 0 hr 9 min 55 sec) 
select_counter is 337
Heartbeat CPU 0 instructions: 32000000 cycles: 16017039 heartbeat IPC: 1.35686 cumulative IPC: 1.88306 (Simulation time: 0 hr 10 min 18 sec) 
select_counter is 331
Heartbeat CPU 0 instructions: 33000003 cycles: 16721647 heartbeat IPC: 1.41923 cumulative IPC: 1.85668 (Simulation time: 0 hr 10 min 43 sec) 
select_counter is 321
Heartbeat CPU 0 instructions: 34000000 cycles: 17421553 heartbeat IPC: 1.42876 cumulative IPC: 1.83379 (Simulation time: 0 hr 11 min 7 sec) 
select_counter is 313
Heartbeat CPU 0 instructions: 35000000 cycles: 18094752 heartbeat IPC: 1.48544 cumulative IPC: 1.81675 (Simulation time: 0 hr 11 min 29 sec) 
select_counter is 309
Heartbeat CPU 0 instructions: 36000000 cycles: 18736085 heartbeat IPC: 1.55925 cumulative IPC: 1.80529 (Simulation time: 0 hr 11 min 55 sec) 
select_counter is 309
Heartbeat CPU 0 instructions: 37000002 cycles: 19361902 heartbeat IPC: 1.59791 cumulative IPC: 1.79665 (Simulation time: 0 hr 12 min 19 sec) 
select_counter is 309
Heartbeat CPU 0 instructions: 38000003 cycles: 19996909 heartbeat IPC: 1.57479 cumulative IPC: 1.78765 (Simulation time: 0 hr 12 min 39 sec) 
select_counter is 310
Heartbeat CPU 0 instructions: 39000003 cycles: 20777437 heartbeat IPC: 1.28118 cumulative IPC: 1.76361 (Simulation time: 0 hr 13 min 0 sec) 
select_counter is 485
Heartbeat CPU 0 instructions: 40000000 cycles: 21622646 heartbeat IPC: 1.18314 cumulative IPC: 1.73524 (Simulation time: 0 hr 13 min 25 sec) 
select_counter is 513
Heartbeat CPU 0 instructions: 41000000 cycles: 22563877 heartbeat IPC: 1.06244 cumulative IPC: 1.7005 (Simulation time: 0 hr 13 min 46 sec) 
select_counter is 523
Heartbeat CPU 0 instructions: 42000001 cycles: 23165452 heartbeat IPC: 1.6623 cumulative IPC: 1.69928 (Simulation time: 0 hr 14 min 7 sec) 
select_counter is 522
Heartbeat CPU 0 instructions: 43000000 cycles: 23787184 heartbeat IPC: 1.60841 cumulative IPC: 1.69637 (Simulation time: 0 hr 14 min 30 sec) 
select_counter is 524
Heartbeat CPU 0 instructions: 44000000 cycles: 24463941 heartbeat IPC: 1.47764 cumulative IPC: 1.68902 (Simulation time: 0 hr 14 min 56 sec) 
select_counter is 524
Heartbeat CPU 0 instructions: 45000002 cycles: 25138350 heartbeat IPC: 1.48278 cumulative IPC: 1.68233 (Simulation time: 0 hr 15 min 19 sec) 
select_counter is 524
Heartbeat CPU 0 instructions: 46000002 cycles: 25863473 heartbeat IPC: 1.37908 cumulative IPC: 1.67212 (Simulation time: 0 hr 15 min 41 sec) 
select_counter is 526
Heartbeat CPU 0 instructions: 47000002 cycles: 26699162 heartbeat IPC: 1.19662 cumulative IPC: 1.65435 (Simulation time: 0 hr 15 min 59 sec) 
select_counter is 634
Heartbeat CPU 0 instructions: 48000000 cycles: 27146271 heartbeat IPC: 2.23659 cumulative IPC: 1.66576 (Simulation time: 0 hr 16 min 20 sec) 
select_counter is 646
Heartbeat CPU 0 instructions: 49000000 cycles: 27594052 heartbeat IPC: 2.23323 cumulative IPC: 1.67669 (Simulation time: 0 hr 16 min 40 sec) 
select_counter is 672
Heartbeat CPU 0 instructions: 50000000 cycles: 28069659 heartbeat IPC: 2.10258 cumulative IPC: 1.68522 (Simulation time: 0 hr 16 min 59 sec) 
select_counter is 694
Heartbeat CPU 0 instructions: 51000000 cycles: 28654343 heartbeat IPC: 1.71033 cumulative IPC: 1.68583 (Simulation time: 0 hr 17 min 22 sec) 
select_counter is 703
Heartbeat CPU 0 instructions: 52000000 cycles: 29244335 heartbeat IPC: 1.69494 cumulative IPC: 1.68604 (Simulation time: 0 hr 17 min 44 sec) 
select_counter is 766
Heartbeat CPU 0 instructions: 53000000 cycles: 29768506 heartbeat IPC: 1.90777 cumulative IPC: 1.69061 (Simulation time: 0 hr 18 min 4 sec) 
select_counter is 869
Heartbeat CPU 0 instructions: 54000003 cycles: 30289694 heartbeat IPC: 1.9187 cumulative IPC: 1.69519 (Simulation time: 0 hr 18 min 21 sec) 
select_counter is 977
Heartbeat CPU 0 instructions: 55000001 cycles: 30810063 heartbeat IPC: 1.92171 cumulative IPC: 1.69964 (Simulation time: 0 hr 18 min 40 sec) 
select_counter is 1090
Heartbeat CPU 0 instructions: 56000000 cycles: 31328131 heartbeat IPC: 1.93025 cumulative IPC: 1.70407 (Simulation time: 0 hr 18 min 58 sec) 
select_counter is 1194
Heartbeat CPU 0 instructions: 57000003 cycles: 31849262 heartbeat IPC: 1.91891 cumulative IPC: 1.70814 (Simulation time: 0 hr 19 min 18 sec) 
select_counter is 1291
Heartbeat CPU 0 instructions: 58000000 cycles: 32373194 heartbeat IPC: 1.90864 cumulative IPC: 1.71189 (Simulation time: 0 hr 19 min 39 sec) 
select_counter is 1371
Heartbeat CPU 0 instructions: 59000001 cycles: 32934820 heartbeat IPC: 1.78055 cumulative IPC: 1.71323 (Simulation time: 0 hr 20 min 0 sec) 
select_counter is 1349
Heartbeat CPU 0 instructions: 60000000 cycles: 33464300 heartbeat IPC: 1.88864 cumulative IPC: 1.71642 (Simulation time: 0 hr 20 min 18 sec) 
select_counter is 1342
Heartbeat CPU 0 instructions: 61000003 cycles: 34002387 heartbeat IPC: 1.85844 cumulative IPC: 1.719 (Simulation time: 0 hr 20 min 38 sec) 
select_counter is 1323
Heartbeat CPU 0 instructions: 62000002 cycles: 34537859 heartbeat IPC: 1.86751 cumulative IPC: 1.72163 (Simulation time: 0 hr 20 min 58 sec) 
select_counter is 1299
Heartbeat CPU 0 instructions: 63000003 cycles: 35078199 heartbeat IPC: 1.85069 cumulative IPC: 1.7239 (Simulation time: 0 hr 21 min 17 sec) 
select_counter is 1268
Heartbeat CPU 0 instructions: 64000000 cycles: 35616386 heartbeat IPC: 1.85808 cumulative IPC: 1.72621 (Simulation time: 0 hr 21 min 37 sec) 
select_counter is 1252
Heartbeat CPU 0 instructions: 65000000 cycles: 36297363 heartbeat IPC: 1.46848 cumulative IPC: 1.72072 (Simulation time: 0 hr 21 min 57 sec) 
select_counter is 1245
Heartbeat CPU 0 instructions: 66000002 cycles: 36860670 heartbeat IPC: 1.77523 cumulative IPC: 1.72166 (Simulation time: 0 hr 22 min 15 sec) 
select_counter is 1205
Heartbeat CPU 0 instructions: 67000002 cycles: 37370959 heartbeat IPC: 1.95967 cumulative IPC: 1.72534 (Simulation time: 0 hr 22 min 33 sec) 
select_counter is 1153
Heartbeat CPU 0 instructions: 68000000 cycles: 37870005 heartbeat IPC: 2.00382 cumulative IPC: 1.72948 (Simulation time: 0 hr 22 min 52 sec) 
select_counter is 1104
Heartbeat CPU 0 instructions: 69000001 cycles: 38408444 heartbeat IPC: 1.85722 cumulative IPC: 1.7315 (Simulation time: 0 hr 23 min 10 sec) 
select_counter is 1042
Heartbeat CPU 0 instructions: 70000000 cycles: 38908998 heartbeat IPC: 1.99778 cumulative IPC: 1.73535 (Simulation time: 0 hr 23 min 28 sec) 
select_counter is 973
Heartbeat CPU 0 instructions: 71000002 cycles: 39413636 heartbeat IPC: 1.98162 cumulative IPC: 1.7389 (Simulation time: 0 hr 23 min 48 sec) 
select_counter is 899
Heartbeat CPU 0 instructions: 72000000 cycles: 39920736 heartbeat IPC: 1.97199 cumulative IPC: 1.74222 (Simulation time: 0 hr 24 min 7 sec) 
select_counter is 853
Heartbeat CPU 0 instructions: 73000001 cycles: 40465312 heartbeat IPC: 1.83629 cumulative IPC: 1.74364 (Simulation time: 0 hr 24 min 28 sec) 
select_counter is 843
Heartbeat CPU 0 instructions: 74000002 cycles: 41072820 heartbeat IPC: 1.64607 cumulative IPC: 1.74202 (Simulation time: 0 hr 24 min 46 sec) 
select_counter is 832
Heartbeat CPU 0 instructions: 75000000 cycles: 41607912 heartbeat IPC: 1.86883 cumulative IPC: 1.74384 (Simulation time: 0 hr 25 min 5 sec) 
select_counter is 833
Heartbeat CPU 0 instructions: 76000000 cycles: 42334443 heartbeat IPC: 1.3764 cumulative IPC: 1.73682 (Simulation time: 0 hr 25 min 26 sec) 
select_counter is 841
Heartbeat CPU 0 instructions: 77000000 cycles: 43055424 heartbeat IPC: 1.387 cumulative IPC: 1.73031 (Simulation time: 0 hr 25 min 47 sec) 
select_counter is 841
Heartbeat CPU 0 instructions: 78000003 cycles: 43774005 heartbeat IPC: 1.39164 cumulative IPC: 1.72413 (Simulation time: 0 hr 26 min 8 sec) 
select_counter is 841
Heartbeat CPU 0 instructions: 79000000 cycles: 44484926 heartbeat IPC: 1.40662 cumulative IPC: 1.71851 (Simulation time: 0 hr 26 min 29 sec) 
select_counter is 841
Heartbeat CPU 0 instructions: 80000000 cycles: 45170008 heartbeat IPC: 1.45968 cumulative IPC: 1.71417 (Simulation time: 0 hr 26 min 50 sec) 
select_counter is 841
Heartbeat CPU 0 instructions: 81000001 cycles: 45834340 heartbeat IPC: 1.50527 cumulative IPC: 1.71083 (Simulation time: 0 hr 27 min 12 sec) 
select_counter is 841
Heartbeat CPU 0 instructions: 82000002 cycles: 46477298 heartbeat IPC: 1.55531 cumulative IPC: 1.70845 (Simulation time: 0 hr 27 min 36 sec) 
select_counter is 841
Heartbeat CPU 0 instructions: 83000002 cycles: 47328612 heartbeat IPC: 1.17465 cumulative IPC: 1.69788 (Simulation time: 0 hr 28 min 0 sec) 
select_counter is 1201
Heartbeat CPU 0 instructions: 84000000 cycles: 47931616 heartbeat IPC: 1.65836 cumulative IPC: 1.69734 (Simulation time: 0 hr 28 min 20 sec) 
select_counter is 1337
Heartbeat CPU 0 instructions: 85000000 cycles: 48406454 heartbeat IPC: 2.10598 cumulative IPC: 1.70174 (Simulation time: 0 hr 28 min 39 sec) 
select_counter is 1491
Heartbeat CPU 0 instructions: 86000001 cycles: 48878245 heartbeat IPC: 2.11958 cumulative IPC: 1.70617 (Simulation time: 0 hr 28 min 58 sec) 
select_counter is 1636
Heartbeat CPU 0 instructions: 87000002 cycles: 49350753 heartbeat IPC: 2.11637 cumulative IPC: 1.71047 (Simulation time: 0 hr 29 min 17 sec) 
select_counter is 1757
Heartbeat CPU 0 instructions: 88000000 cycles: 49819904 heartbeat IPC: 2.13151 cumulative IPC: 1.71481 (Simulation time: 0 hr 29 min 35 sec) 
select_counter is 1889
Heartbeat CPU 0 instructions: 89000003 cycles: 50288206 heartbeat IPC: 2.13538 cumulative IPC: 1.7191 (Simulation time: 0 hr 29 min 53 sec) 
select_counter is 2020
Heartbeat CPU 0 instructions: 90000003 cycles: 50756075 heartbeat IPC: 2.13735 cumulative IPC: 1.72332 (Simulation time: 0 hr 30 min 11 sec) 
select_counter is 2047
Heartbeat CPU 0 instructions: 91000001 cycles: 51235965 heartbeat IPC: 2.08381 cumulative IPC: 1.727 (Simulation time: 0 hr 30 min 32 sec) 
select_counter is 2046
Heartbeat CPU 0 instructions: 92000000 cycles: 51701441 heartbeat IPC: 2.14834 cumulative IPC: 1.73114 (Simulation time: 0 hr 30 min 50 sec) 
select_counter is 2046
Heartbeat CPU 0 instructions: 93000000 cycles: 52152080 heartbeat IPC: 2.21907 cumulative IPC: 1.73574 (Simulation time: 0 hr 31 min 10 sec) 
select_counter is 2046
Heartbeat CPU 0 instructions: 94000003 cycles: 52601705 heartbeat IPC: 2.22408 cumulative IPC: 1.74029 (Simulation time: 0 hr 31 min 29 sec) 
select_counter is 2046
Heartbeat CPU 0 instructions: 95000001 cycles: 53208219 heartbeat IPC: 1.64876 cumulative IPC: 1.73916 (Simulation time: 0 hr 31 min 49 sec) 
select_counter is 2045
Heartbeat CPU 0 instructions: 96000000 cycles: 53802345 heartbeat IPC: 1.68314 cumulative IPC: 1.73848 (Simulation time: 0 hr 32 min 10 sec) 
select_counter is 2047
Heartbeat CPU 0 instructions: 97000000 cycles: 54350521 heartbeat IPC: 1.82423 cumulative IPC: 1.73942 (Simulation time: 0 hr 32 min 28 sec) 
select_counter is 2047
Heartbeat CPU 0 instructions: 98000003 cycles: 54895333 heartbeat IPC: 1.8355 cumulative IPC: 1.74046 (Simulation time: 0 hr 32 min 52 sec) 
select_counter is 2040
Heartbeat CPU 0 instructions: 99000000 cycles: 55442147 heartbeat IPC: 1.82877 cumulative IPC: 1.7414 (Simulation time: 0 hr 33 min 11 sec) 
select_counter is 2039
Heartbeat CPU 0 instructions: 100000000 cycles: 55991390 heartbeat IPC: 1.82069 cumulative IPC: 1.74225 (Simulation time: 0 hr 33 min 29 sec) 
select_counter is 2041
Heartbeat CPU 0 instructions: 101000001 cycles: 56538310 heartbeat IPC: 1.82842 cumulative IPC: 1.74315 (Simulation time: 0 hr 33 min 48 sec) 
select_counter is 2046
Heartbeat CPU 0 instructions: 102000002 cycles: 57116219 heartbeat IPC: 1.73038 cumulative IPC: 1.74301 (Simulation time: 0 hr 34 min 7 sec) 
select_counter is 1989
Heartbeat CPU 0 instructions: 103000000 cycles: 57670477 heartbeat IPC: 1.80421 cumulative IPC: 1.74364 (Simulation time: 0 hr 34 min 25 sec) 
select_counter is 1912
Heartbeat CPU 0 instructions: 104000000 cycles: 58227404 heartbeat IPC: 1.79557 cumulative IPC: 1.74418 (Simulation time: 0 hr 34 min 43 sec) 
select_counter is 1827
Heartbeat CPU 0 instructions: 105000000 cycles: 58789864 heartbeat IPC: 1.7779 cumulative IPC: 1.74453 (Simulation time: 0 hr 35 min 0 sec) 
select_counter is 1733
Heartbeat CPU 0 instructions: 106000003 cycles: 59348388 heartbeat IPC: 1.79044 cumulative IPC: 1.745 (Simulation time: 0 hr 35 min 18 sec) 
select_counter is 1647
Heartbeat CPU 0 instructions: 107000000 cycles: 59908365 heartbeat IPC: 1.78578 cumulative IPC: 1.74541 (Simulation time: 0 hr 35 min 34 sec) 
select_counter is 1552
Heartbeat CPU 0 instructions: 108000000 cycles: 60515831 heartbeat IPC: 1.64618 cumulative IPC: 1.74433 (Simulation time: 0 hr 35 min 52 sec) 
select_counter is 1484
Heartbeat CPU 0 instructions: 109000002 cycles: 61162881 heartbeat IPC: 1.54548 cumulative IPC: 1.74207 (Simulation time: 0 hr 36 min 11 sec) 
select_counter is 1465
Heartbeat CPU 0 instructions: 110000003 cycles: 61651757 heartbeat IPC: 2.04551 cumulative IPC: 1.74466 (Simulation time: 0 hr 36 min 26 sec) 
select_counter is 1419
Finished CPU 0 instructions: 100000000 cycles: 57317826 cummulative IPC: 1.74466 (Simulation time: 0 hr 36 min 26 sec) 

ChampSim completed all CPUs

Region of Interest Statistics

CPU 0 cummulative IPC: 1.74466 instructions: 100000000 cycles: 57317826
LLC TOTAL     ACCESS:    1161489  HIT:     902823  MISS:     258666
LLC LOAD      ACCESS:     133710  HIT:     127884  MISS:       5826
LLC RFO       ACCESS:      47550  HIT:      17686  MISS:      29864
LLC PREFETCH  ACCESS:     680407  HIT:     464431  MISS:     215976
LLC WRITEBACK ACCESS:     299822  HIT:     292822  MISS:       7000
Ship samples: 
4, 56, 74, 106, 145, 174, 222, 237, 271, 296, 321, 365, 415, 422, 476, 481, 521, 559, 586, 632, 648, 687, 718, 761, 782, 829, 852, 876, 924, 944, 963, 1021, 1042, 1075, 1095, 1134, 1164, 1210, 1219, 1270, 1286, 1313, 1374, 1402, 1437, 1442, 1488, 1505, 1537, 1571, 1611, 1657, 1677, 1708, 1738, 1767, 1823, 1852, 1871, 1899, 1928, 1979, 2012, 2037, 
Lime duel samples: 
10, 40, 95, 126, 139, 167, 200, 226, 278, 302, 345, 353, 412, 433, 477, 496, 517, 544, 583, 634, 657, 673, 714, 742, 796, 819, 847, 874, 915, 946, 984, 1009, 1036, 1068, 1116, 1131, 1167, 1213, 1242, 1267, 1297, 1331, 1370, 1389, 1439, 1458, 1487, 1518, 1564, 1597, 1613, 1651, 1673, 1716, 1728, 1790, 1822, 1825, 1868, 1910, 1932, 1966, 2008, 2044, 
Lime samples: 
10, 126, 200, 302, 412, 496, 583, 673, 796, 874, 984, 1068, 1167, 1267, 1370, 1458, 1564, 1651, 1728, 1825, 1932, 
Insertion Distribution: 
	LOAD 1139 0 0 0 0 0 1752 79 
	RFO 2249 0 0 0 0 0 3698 5008 
	PREF 0 6085 0 0 0 0 12916 6234 
	WRITEBACK 0 0 0 0 0 0 0 5457 
Total Prefetch Downgrades: 5798
