
*** ChampSim Multicore Out-of-Order Simulator ***

Warmup Instructions: 10000000
Simulation Instructions: 100000000
Configuration: 2
Number of CPUs: 1
LLC sets: 2048
LLC ways: 16
Off-chip DRAM Channels: 1 Width: 64-bit Data Rate: 1600 MT/s

CPU 0 runs /datasets/cs240c-wi22-a00-public/data/Assignment2-gz/lbm_94B.trace.gz
CPU 0 L1D next line prefetcher
CPU 0 L2C IP-based stride prefetcher
Heartbeat CPU 0 instructions: 1000000 cycles: 422068 heartbeat IPC: 2.36929 cumulative IPC: 2.36929 (Simulation time: 0 hr 0 min 21 sec) 
select_counter is 1166
Heartbeat CPU 0 instructions: 2000000 cycles: 812399 heartbeat IPC: 2.56193 cumulative IPC: 2.46184 (Simulation time: 0 hr 0 min 40 sec) 
select_counter is 1660
Heartbeat CPU 0 instructions: 3000000 cycles: 1211540 heartbeat IPC: 2.50538 cumulative IPC: 2.47619 (Simulation time: 0 hr 0 min 59 sec) 
select_counter is 2046
Heartbeat CPU 0 instructions: 4000000 cycles: 1631535 heartbeat IPC: 2.38098 cumulative IPC: 2.45168 (Simulation time: 0 hr 1 min 20 sec) 
select_counter is 1946
Heartbeat CPU 0 instructions: 5000001 cycles: 2021787 heartbeat IPC: 2.56245 cumulative IPC: 2.47306 (Simulation time: 0 hr 1 min 40 sec) 
select_counter is 2047
Heartbeat CPU 0 instructions: 6000000 cycles: 2422465 heartbeat IPC: 2.49577 cumulative IPC: 2.47682 (Simulation time: 0 hr 2 min 0 sec) 
select_counter is 2022
Heartbeat CPU 0 instructions: 7000001 cycles: 2840614 heartbeat IPC: 2.39149 cumulative IPC: 2.46426 (Simulation time: 0 hr 2 min 21 sec) 
select_counter is 1766
Heartbeat CPU 0 instructions: 8000000 cycles: 3230851 heartbeat IPC: 2.56254 cumulative IPC: 2.47613 (Simulation time: 0 hr 2 min 40 sec) 
select_counter is 2039
Heartbeat CPU 0 instructions: 9000003 cycles: 3631886 heartbeat IPC: 2.49356 cumulative IPC: 2.47805 (Simulation time: 0 hr 3 min 0 sec) 
select_counter is 2000
Heartbeat CPU 0 instructions: 10000000 cycles: 4048463 heartbeat IPC: 2.40051 cumulative IPC: 2.47007 (Simulation time: 0 hr 3 min 21 sec) 
select_counter is 1809

Warmup complete CPU 0 instructions: 10000004 cycles: 4048464 (Simulation time: 0 hr 3 min 21 sec) 

Heartbeat CPU 0 instructions: 11000001 cycles: 5423217 heartbeat IPC: 0.727404 cumulative IPC: 0.727401 (Simulation time: 0 hr 3 min 44 sec) 
select_counter is 2047
Heartbeat CPU 0 instructions: 12000000 cycles: 7003357 heartbeat IPC: 0.632855 cumulative IPC: 0.676842 (Simulation time: 0 hr 4 min 8 sec) 
select_counter is 2039
Heartbeat CPU 0 instructions: 13000000 cycles: 8653684 heartbeat IPC: 0.605941 cumulative IPC: 0.651434 (Simulation time: 0 hr 4 min 33 sec) 
select_counter is 2047
Heartbeat CPU 0 instructions: 14000000 cycles: 9983442 heartbeat IPC: 0.752017 cumulative IPC: 0.67397 (Simulation time: 0 hr 4 min 55 sec) 
select_counter is 2036
Heartbeat CPU 0 instructions: 15000003 cycles: 11537714 heartbeat IPC: 0.64339 cumulative IPC: 0.667623 (Simulation time: 0 hr 5 min 19 sec) 
select_counter is 2017
Heartbeat CPU 0 instructions: 16000000 cycles: 13240159 heartbeat IPC: 0.587389 cumulative IPC: 0.652763 (Simulation time: 0 hr 5 min 47 sec) 
select_counter is 2009
Heartbeat CPU 0 instructions: 17000001 cycles: 14606733 heartbeat IPC: 0.731758 cumulative IPC: 0.662987 (Simulation time: 0 hr 6 min 10 sec) 
select_counter is 2042
Heartbeat CPU 0 instructions: 18000001 cycles: 16087729 heartbeat IPC: 0.675221 cumulative IPC: 0.664492 (Simulation time: 0 hr 6 min 33 sec) 
select_counter is 2043
Heartbeat CPU 0 instructions: 19000000 cycles: 17729119 heartbeat IPC: 0.609239 cumulative IPC: 0.657863 (Simulation time: 0 hr 6 min 57 sec) 
select_counter is 2044
Heartbeat CPU 0 instructions: 20000000 cycles: 19095978 heartbeat IPC: 0.731604 cumulative IPC: 0.664561 (Simulation time: 0 hr 7 min 19 sec) 
select_counter is 2035
Heartbeat CPU 0 instructions: 21000001 cycles: 20524468 heartbeat IPC: 0.700041 cumulative IPC: 0.667637 (Simulation time: 0 hr 7 min 41 sec) 
select_counter is 2041
Heartbeat CPU 0 instructions: 22000000 cycles: 22171086 heartbeat IPC: 0.607305 cumulative IPC: 0.662156 (Simulation time: 0 hr 8 min 5 sec) 
select_counter is 2042
Heartbeat CPU 0 instructions: 23000000 cycles: 23532985 heartbeat IPC: 0.734269 cumulative IPC: 0.667196 (Simulation time: 0 hr 8 min 28 sec) 
select_counter is 2034
Heartbeat CPU 0 instructions: 24000000 cycles: 24978613 heartbeat IPC: 0.691741 cumulative IPC: 0.668891 (Simulation time: 0 hr 8 min 50 sec) 
select_counter is 2047
Heartbeat CPU 0 instructions: 25000000 cycles: 26633858 heartbeat IPC: 0.60414 cumulative IPC: 0.664146 (Simulation time: 0 hr 9 min 13 sec) 
select_counter is 2044
Heartbeat CPU 0 instructions: 26000000 cycles: 27972667 heartbeat IPC: 0.746933 cumulative IPC: 0.668779 (Simulation time: 0 hr 9 min 36 sec) 
select_counter is 2044
Heartbeat CPU 0 instructions: 27000002 cycles: 29364973 heartbeat IPC: 0.718234 cumulative IPC: 0.671498 (Simulation time: 0 hr 9 min 59 sec) 
select_counter is 2047
Heartbeat CPU 0 instructions: 28000000 cycles: 31028386 heartbeat IPC: 0.601172 cumulative IPC: 0.667163 (Simulation time: 0 hr 10 min 22 sec) 
select_counter is 2047
Heartbeat CPU 0 instructions: 29000000 cycles: 32392901 heartbeat IPC: 0.732861 cumulative IPC: 0.670325 (Simulation time: 0 hr 10 min 44 sec) 
select_counter is 2045
Heartbeat CPU 0 instructions: 30000000 cycles: 33807246 heartbeat IPC: 0.707041 cumulative IPC: 0.67207 (Simulation time: 0 hr 11 min 7 sec) 
select_counter is 2041
Heartbeat CPU 0 instructions: 31000003 cycles: 35373957 heartbeat IPC: 0.638282 cumulative IPC: 0.67038 (Simulation time: 0 hr 11 min 30 sec) 
select_counter is 2041
Heartbeat CPU 0 instructions: 32000000 cycles: 36754211 heartbeat IPC: 0.724502 cumulative IPC: 0.672665 (Simulation time: 0 hr 11 min 51 sec) 
select_counter is 2047
Heartbeat CPU 0 instructions: 33000000 cycles: 38180126 heartbeat IPC: 0.701304 cumulative IPC: 0.673861 (Simulation time: 0 hr 12 min 13 sec) 
select_counter is 2046
Heartbeat CPU 0 instructions: 34000003 cycles: 39723971 heartbeat IPC: 0.647735 cumulative IPC: 0.67273 (Simulation time: 0 hr 12 min 36 sec) 
select_counter is 2047
Heartbeat CPU 0 instructions: 35000003 cycles: 41107636 heartbeat IPC: 0.722718 cumulative IPC: 0.674597 (Simulation time: 0 hr 12 min 57 sec) 
select_counter is 2045
Heartbeat CPU 0 instructions: 36000000 cycles: 42518751 heartbeat IPC: 0.708657 cumulative IPC: 0.675846 (Simulation time: 0 hr 13 min 19 sec) 
select_counter is 2034
Heartbeat CPU 0 instructions: 37000003 cycles: 43977912 heartbeat IPC: 0.685327 cumulative IPC: 0.676193 (Simulation time: 0 hr 13 min 42 sec) 
select_counter is 2046
Heartbeat CPU 0 instructions: 38000001 cycles: 45365852 heartbeat IPC: 0.720491 cumulative IPC: 0.677681 (Simulation time: 0 hr 14 min 4 sec) 
select_counter is 2047
Heartbeat CPU 0 instructions: 39000002 cycles: 46713168 heartbeat IPC: 0.742217 cumulative IPC: 0.679719 (Simulation time: 0 hr 14 min 25 sec) 
select_counter is 2045
Heartbeat CPU 0 instructions: 40000000 cycles: 48223734 heartbeat IPC: 0.662002 cumulative IPC: 0.679113 (Simulation time: 0 hr 14 min 48 sec) 
select_counter is 2035
Heartbeat CPU 0 instructions: 41000003 cycles: 49676805 heartbeat IPC: 0.6882 cumulative IPC: 0.679402 (Simulation time: 0 hr 15 min 12 sec) 
select_counter is 2046
Heartbeat CPU 0 instructions: 42000000 cycles: 51010142 heartbeat IPC: 0.749996 cumulative IPC: 0.681407 (Simulation time: 0 hr 15 min 35 sec) 
select_counter is 2045
Heartbeat CPU 0 instructions: 43000001 cycles: 52415959 heartbeat IPC: 0.711331 cumulative IPC: 0.682276 (Simulation time: 0 hr 15 min 57 sec) 
select_counter is 2043
Heartbeat CPU 0 instructions: 44000000 cycles: 53897563 heartbeat IPC: 0.674944 cumulative IPC: 0.682058 (Simulation time: 0 hr 16 min 20 sec) 
select_counter is 2045
Heartbeat CPU 0 instructions: 45000002 cycles: 55223819 heartbeat IPC: 0.754004 cumulative IPC: 0.683923 (Simulation time: 0 hr 16 min 43 sec) 
select_counter is 2045
Heartbeat CPU 0 instructions: 46000003 cycles: 56645544 heartbeat IPC: 0.703372 cumulative IPC: 0.684449 (Simulation time: 0 hr 17 min 5 sec) 
select_counter is 2044
Heartbeat CPU 0 instructions: 47000001 cycles: 58108444 heartbeat IPC: 0.683572 cumulative IPC: 0.684425 (Simulation time: 0 hr 17 min 29 sec) 
select_counter is 2041
Heartbeat CPU 0 instructions: 48000000 cycles: 59484604 heartbeat IPC: 0.726659 cumulative IPC: 0.685473 (Simulation time: 0 hr 17 min 51 sec) 
select_counter is 2046
Heartbeat CPU 0 instructions: 49000000 cycles: 60894601 heartbeat IPC: 0.709221 cumulative IPC: 0.686062 (Simulation time: 0 hr 18 min 14 sec) 
select_counter is 2044
Heartbeat CPU 0 instructions: 50000003 cycles: 62298832 heartbeat IPC: 0.712136 cumulative IPC: 0.686691 (Simulation time: 0 hr 18 min 36 sec) 
select_counter is 2035
Heartbeat CPU 0 instructions: 51000003 cycles: 63678353 heartbeat IPC: 0.724889 cumulative IPC: 0.687575 (Simulation time: 0 hr 18 min 58 sec) 
select_counter is 2044
Heartbeat CPU 0 instructions: 52000000 cycles: 65058225 heartbeat IPC: 0.724703 cumulative IPC: 0.688414 (Simulation time: 0 hr 19 min 21 sec) 
select_counter is 2047
Heartbeat CPU 0 instructions: 53000001 cycles: 66494568 heartbeat IPC: 0.696213 cumulative IPC: 0.688594 (Simulation time: 0 hr 19 min 43 sec) 
select_counter is 2043
Heartbeat CPU 0 instructions: 54000000 cycles: 67881455 heartbeat IPC: 0.721039 cumulative IPC: 0.689299 (Simulation time: 0 hr 20 min 6 sec) 
select_counter is 2047
Heartbeat CPU 0 instructions: 55000003 cycles: 69230263 heartbeat IPC: 0.741398 cumulative IPC: 0.690377 (Simulation time: 0 hr 20 min 29 sec) 
select_counter is 2042
Heartbeat CPU 0 instructions: 56000000 cycles: 70639487 heartbeat IPC: 0.709608 cumulative IPC: 0.690784 (Simulation time: 0 hr 20 min 51 sec) 
select_counter is 2047
Heartbeat CPU 0 instructions: 57000003 cycles: 71998223 heartbeat IPC: 0.73598 cumulative IPC: 0.691688 (Simulation time: 0 hr 21 min 14 sec) 
select_counter is 2045
Heartbeat CPU 0 instructions: 58000003 cycles: 73380532 heartbeat IPC: 0.723427 cumulative IPC: 0.69232 (Simulation time: 0 hr 21 min 37 sec) 
select_counter is 2040
Heartbeat CPU 0 instructions: 59000002 cycles: 74790902 heartbeat IPC: 0.709033 cumulative IPC: 0.692654 (Simulation time: 0 hr 22 min 0 sec) 
select_counter is 2045
Heartbeat CPU 0 instructions: 60000000 cycles: 76171895 heartbeat IPC: 0.724115 cumulative IPC: 0.693256 (Simulation time: 0 hr 22 min 22 sec) 
select_counter is 2037
Heartbeat CPU 0 instructions: 61000000 cycles: 77526559 heartbeat IPC: 0.73819 cumulative IPC: 0.694084 (Simulation time: 0 hr 22 min 44 sec) 
select_counter is 2047
Heartbeat CPU 0 instructions: 62000000 cycles: 78908259 heartbeat IPC: 0.723746 cumulative IPC: 0.694632 (Simulation time: 0 hr 23 min 7 sec) 
select_counter is 2043
Heartbeat CPU 0 instructions: 63000001 cycles: 80345236 heartbeat IPC: 0.695906 cumulative IPC: 0.694656 (Simulation time: 0 hr 23 min 29 sec) 
select_counter is 2042
Heartbeat CPU 0 instructions: 64000000 cycles: 81701152 heartbeat IPC: 0.737508 cumulative IPC: 0.695404 (Simulation time: 0 hr 23 min 51 sec) 
select_counter is 2044
Heartbeat CPU 0 instructions: 65000003 cycles: 83041807 heartbeat IPC: 0.745906 cumulative IPC: 0.696261 (Simulation time: 0 hr 24 min 14 sec) 
select_counter is 2044
Heartbeat CPU 0 instructions: 66000002 cycles: 84445964 heartbeat IPC: 0.71217 cumulative IPC: 0.696539 (Simulation time: 0 hr 24 min 36 sec) 
select_counter is 2029
Heartbeat CPU 0 instructions: 67000002 cycles: 85798978 heartbeat IPC: 0.739091 cumulative IPC: 0.697243 (Simulation time: 0 hr 24 min 58 sec) 
select_counter is 2046
Heartbeat CPU 0 instructions: 68000000 cycles: 87172290 heartbeat IPC: 0.728165 cumulative IPC: 0.697754 (Simulation time: 0 hr 25 min 19 sec) 
select_counter is 2045
Heartbeat CPU 0 instructions: 69000000 cycles: 88557562 heartbeat IPC: 0.72188 cumulative IPC: 0.69815 (Simulation time: 0 hr 25 min 41 sec) 
select_counter is 2047
Heartbeat CPU 0 instructions: 70000001 cycles: 90013669 heartbeat IPC: 0.686763 cumulative IPC: 0.697957 (Simulation time: 0 hr 26 min 5 sec) 
select_counter is 2047
Heartbeat CPU 0 instructions: 71000001 cycles: 91356378 heartbeat IPC: 0.744763 cumulative IPC: 0.698677 (Simulation time: 0 hr 26 min 26 sec) 
select_counter is 2045
Heartbeat CPU 0 instructions: 72000000 cycles: 92709867 heartbeat IPC: 0.738831 cumulative IPC: 0.69929 (Simulation time: 0 hr 26 min 49 sec) 
select_counter is 2044
Heartbeat CPU 0 instructions: 73000001 cycles: 94131959 heartbeat IPC: 0.70319 cumulative IPC: 0.699351 (Simulation time: 0 hr 27 min 13 sec) 
select_counter is 2026
Heartbeat CPU 0 instructions: 74000001 cycles: 95530814 heartbeat IPC: 0.71487 cumulative IPC: 0.699588 (Simulation time: 0 hr 27 min 36 sec) 
select_counter is 2041
Heartbeat CPU 0 instructions: 75000000 cycles: 96900245 heartbeat IPC: 0.73023 cumulative IPC: 0.70004 (Simulation time: 0 hr 28 min 0 sec) 
select_counter is 2044
Heartbeat CPU 0 instructions: 76000000 cycles: 98311146 heartbeat IPC: 0.708767 cumulative IPC: 0.700171 (Simulation time: 0 hr 28 min 23 sec) 
select_counter is 2047
Heartbeat CPU 0 instructions: 77000002 cycles: 99683154 heartbeat IPC: 0.72886 cumulative IPC: 0.700583 (Simulation time: 0 hr 28 min 46 sec) 
select_counter is 2047
Heartbeat CPU 0 instructions: 78000003 cycles: 101059827 heartbeat IPC: 0.72639 cumulative IPC: 0.700949 (Simulation time: 0 hr 29 min 9 sec) 
select_counter is 2031
Heartbeat CPU 0 instructions: 79000000 cycles: 102457822 heartbeat IPC: 0.715308 cumulative IPC: 0.701153 (Simulation time: 0 hr 29 min 32 sec) 
select_counter is 2042
Heartbeat CPU 0 instructions: 80000000 cycles: 103868750 heartbeat IPC: 0.708753 cumulative IPC: 0.70126 (Simulation time: 0 hr 29 min 55 sec) 
select_counter is 2043
Heartbeat CPU 0 instructions: 81000000 cycles: 105215206 heartbeat IPC: 0.74269 cumulative IPC: 0.701812 (Simulation time: 0 hr 30 min 18 sec) 
select_counter is 2032
Heartbeat CPU 0 instructions: 82000000 cycles: 106596318 heartbeat IPC: 0.724054 cumulative IPC: 0.702111 (Simulation time: 0 hr 30 min 41 sec) 
select_counter is 2013
Heartbeat CPU 0 instructions: 83000003 cycles: 108001498 heartbeat IPC: 0.711655 cumulative IPC: 0.70224 (Simulation time: 0 hr 31 min 3 sec) 
select_counter is 2037
Heartbeat CPU 0 instructions: 84000000 cycles: 109350716 heartbeat IPC: 0.741168 cumulative IPC: 0.702739 (Simulation time: 0 hr 31 min 26 sec) 
select_counter is 2047
Heartbeat CPU 0 instructions: 85000001 cycles: 110728561 heartbeat IPC: 0.725772 cumulative IPC: 0.703036 (Simulation time: 0 hr 31 min 48 sec) 
select_counter is 2025
Heartbeat CPU 0 instructions: 86000003 cycles: 112150593 heartbeat IPC: 0.70322 cumulative IPC: 0.703039 (Simulation time: 0 hr 32 min 10 sec) 
select_counter is 2044
Heartbeat CPU 0 instructions: 87000000 cycles: 113524460 heartbeat IPC: 0.72787 cumulative IPC: 0.70335 (Simulation time: 0 hr 32 min 32 sec) 
select_counter is 2046
Heartbeat CPU 0 instructions: 88000000 cycles: 114888176 heartbeat IPC: 0.73329 cumulative IPC: 0.703719 (Simulation time: 0 hr 32 min 54 sec) 
select_counter is 2045
Heartbeat CPU 0 instructions: 89000003 cycles: 116236669 heartbeat IPC: 0.741571 cumulative IPC: 0.704174 (Simulation time: 0 hr 33 min 16 sec) 
select_counter is 2043
Heartbeat CPU 0 instructions: 90000003 cycles: 117661149 heartbeat IPC: 0.702011 cumulative IPC: 0.704147 (Simulation time: 0 hr 33 min 39 sec) 
select_counter is 2043
Heartbeat CPU 0 instructions: 91000002 cycles: 118999602 heartbeat IPC: 0.74713 cumulative IPC: 0.704647 (Simulation time: 0 hr 34 min 2 sec) 
select_counter is 2047
Heartbeat CPU 0 instructions: 92000000 cycles: 120363551 heartbeat IPC: 0.733164 cumulative IPC: 0.704982 (Simulation time: 0 hr 34 min 31 sec) 
select_counter is 2039
Heartbeat CPU 0 instructions: 93000003 cycles: 121807580 heartbeat IPC: 0.692509 cumulative IPC: 0.704829 (Simulation time: 0 hr 34 min 54 sec) 
select_counter is 2046
Heartbeat CPU 0 instructions: 94000001 cycles: 123158883 heartbeat IPC: 0.740025 cumulative IPC: 0.705228 (Simulation time: 0 hr 35 min 15 sec) 
select_counter is 2045
Heartbeat CPU 0 instructions: 95000003 cycles: 124510210 heartbeat IPC: 0.740015 cumulative IPC: 0.705618 (Simulation time: 0 hr 35 min 38 sec) 
select_counter is 2043
Heartbeat CPU 0 instructions: 96000000 cycles: 125862680 heartbeat IPC: 0.739386 cumulative IPC: 0.705993 (Simulation time: 0 hr 36 min 0 sec) 
select_counter is 2044
Heartbeat CPU 0 instructions: 97000000 cycles: 127294661 heartbeat IPC: 0.698333 cumulative IPC: 0.705904 (Simulation time: 0 hr 36 min 20 sec) 
select_counter is 2043
Heartbeat CPU 0 instructions: 98000002 cycles: 128639716 heartbeat IPC: 0.743465 cumulative IPC: 0.70631 (Simulation time: 0 hr 36 min 39 sec) 
select_counter is 2045
Heartbeat CPU 0 instructions: 99000001 cycles: 130005704 heartbeat IPC: 0.73207 cumulative IPC: 0.706589 (Simulation time: 0 hr 36 min 58 sec) 
select_counter is 2047
Heartbeat CPU 0 instructions: 100000000 cycles: 131404751 heartbeat IPC: 0.714772 cumulative IPC: 0.706679 (Simulation time: 0 hr 37 min 18 sec) 
select_counter is 2047
Heartbeat CPU 0 instructions: 101000003 cycles: 132788241 heartbeat IPC: 0.722812 cumulative IPC: 0.706852 (Simulation time: 0 hr 37 min 36 sec) 
select_counter is 2042
Heartbeat CPU 0 instructions: 102000002 cycles: 134167613 heartbeat IPC: 0.724967 cumulative IPC: 0.707044 (Simulation time: 0 hr 37 min 55 sec) 
select_counter is 2044
Heartbeat CPU 0 instructions: 103000000 cycles: 135614587 heartbeat IPC: 0.691096 cumulative IPC: 0.706869 (Simulation time: 0 hr 38 min 14 sec) 
select_counter is 2041
Heartbeat CPU 0 instructions: 104000000 cycles: 136990631 heartbeat IPC: 0.726721 cumulative IPC: 0.707074 (Simulation time: 0 hr 38 min 32 sec) 
select_counter is 2046
Heartbeat CPU 0 instructions: 105000002 cycles: 138368690 heartbeat IPC: 0.72566 cumulative IPC: 0.707265 (Simulation time: 0 hr 38 min 49 sec) 
select_counter is 2046
Heartbeat CPU 0 instructions: 106000001 cycles: 139709362 heartbeat IPC: 0.745894 cumulative IPC: 0.707647 (Simulation time: 0 hr 39 min 7 sec) 
select_counter is 2046
Heartbeat CPU 0 instructions: 107000000 cycles: 141129524 heartbeat IPC: 0.704144 cumulative IPC: 0.70761 (Simulation time: 0 hr 39 min 24 sec) 
select_counter is 1995
Heartbeat CPU 0 instructions: 108000000 cycles: 142508480 heartbeat IPC: 0.725186 cumulative IPC: 0.707786 (Simulation time: 0 hr 39 min 41 sec) 
select_counter is 2043
Heartbeat CPU 0 instructions: 109000002 cycles: 143890039 heartbeat IPC: 0.723821 cumulative IPC: 0.707944 (Simulation time: 0 hr 39 min 58 sec) 
select_counter is 2046
Heartbeat CPU 0 instructions: 110000000 cycles: 145334493 heartbeat IPC: 0.692302 cumulative IPC: 0.707784 (Simulation time: 0 hr 40 min 15 sec) 
select_counter is 2047
Finished CPU 0 instructions: 100000000 cycles: 141286030 cummulative IPC: 0.707784 (Simulation time: 0 hr 40 min 15 sec) 

ChampSim completed all CPUs

Region of Interest Statistics

CPU 0 cummulative IPC: 0.707784 instructions: 100000000 cycles: 141286030
LLC TOTAL     ACCESS:    5489772  HIT:    1536525  MISS:    3953247
LLC LOAD      ACCESS:     390494  HIT:        527  MISS:     389967
LLC RFO       ACCESS:    2345822  HIT:     497121  MISS:    1848701
LLC PREFETCH  ACCESS:     407306  HIT:        536  MISS:     406770
LLC WRITEBACK ACCESS:    2346150  HIT:    1038341  MISS:    1307809
Ship samples: 
17, 47, 77, 119, 147, 179, 209, 235, 263, 309, 338, 352, 385, 447, 450, 497, 543, 549, 581, 633, 654, 687, 718, 765, 797, 808, 848, 887, 899, 946, 966, 1022, 1041, 1068, 1119, 1140, 1160, 1206, 1217, 1257, 1309, 1336, 1360, 1385, 1436, 1453, 1484, 1521, 1567, 1583, 1629, 1646, 1668, 1697, 1750, 1783, 1793, 1855, 1862, 1896, 1938, 1953, 2010, 2021, 
Lime duel samples: 
16, 54, 92, 103, 150, 184, 201, 231, 281, 305, 329, 361, 391, 442, 448, 496, 536, 558, 582, 635, 669, 674, 726, 744, 799, 807, 847, 872, 914, 950, 965, 995, 1030, 1059, 1111, 1126, 1165, 1187, 1228, 1269, 1288, 1337, 1350, 1386, 1414, 1454, 1472, 1523, 1552, 1576, 1605, 1660, 1664, 1708, 1754, 1769, 1807, 1853, 1868, 1893, 1941, 1960, 1989, 2033, 
Lime samples: 
16, 103, 201, 305, 391, 496, 582, 674, 799, 872, 965, 1059, 1165, 1269, 1350, 1454, 1552, 1660, 1754, 1853, 1941, 
Insertion Distribution: 
	LOAD 0 0 0 0 0 0 71 12597 
	RFO 2164 0 0 0 0 0 11705 58817 
	PREF 0 246 0 0 0 0 1553 12072 
	WRITEBACK 0 0 0 0 0 0 0 56334 
Total Prefetch Downgrades: 466
