
*** ChampSim Multicore Out-of-Order Simulator ***

Warmup Instructions: 10000000
Simulation Instructions: 100000000
Configuration: 2
Number of CPUs: 1
LLC sets: 2048
LLC ways: 16
Off-chip DRAM Channels: 1 Width: 64-bit Data Rate: 1600 MT/s

CPU 0 runs /datasets/cs240c-wi22-a00-public/data/Assignment2-gz/wrf_1228B.trace.gz
CPU 0 L1D next line prefetcher
CPU 0 L2C IP-based stride prefetcher
Heartbeat CPU 0 instructions: 1000003 cycles: 591062 heartbeat IPC: 1.69187 cumulative IPC: 1.69187 (Simulation time: 0 hr 0 min 34 sec) 
select_counter is 1192
Heartbeat CPU 0 instructions: 2000002 cycles: 1111158 heartbeat IPC: 1.92272 cumulative IPC: 1.79993 (Simulation time: 0 hr 1 min 4 sec) 
select_counter is 1561
Heartbeat CPU 0 instructions: 3000000 cycles: 1729117 heartbeat IPC: 1.61823 cumulative IPC: 1.73499 (Simulation time: 0 hr 1 min 31 sec) 
select_counter is 1488
Heartbeat CPU 0 instructions: 4000000 cycles: 2349769 heartbeat IPC: 1.61121 cumulative IPC: 1.70229 (Simulation time: 0 hr 1 min 58 sec) 
select_counter is 1847
Heartbeat CPU 0 instructions: 5000000 cycles: 3052133 heartbeat IPC: 1.42376 cumulative IPC: 1.6382 (Simulation time: 0 hr 2 min 23 sec) 
select_counter is 2046
Heartbeat CPU 0 instructions: 6000000 cycles: 3612222 heartbeat IPC: 1.78543 cumulative IPC: 1.66103 (Simulation time: 0 hr 2 min 48 sec) 
select_counter is 1991
Heartbeat CPU 0 instructions: 7000001 cycles: 4164988 heartbeat IPC: 1.80909 cumulative IPC: 1.68068 (Simulation time: 0 hr 3 min 15 sec) 
select_counter is 1964
Heartbeat CPU 0 instructions: 8000000 cycles: 4716352 heartbeat IPC: 1.81368 cumulative IPC: 1.69623 (Simulation time: 0 hr 3 min 38 sec) 
select_counter is 2017
Heartbeat CPU 0 instructions: 9000002 cycles: 5266542 heartbeat IPC: 1.81756 cumulative IPC: 1.7089 (Simulation time: 0 hr 4 min 2 sec) 
select_counter is 2047
Heartbeat CPU 0 instructions: 10000001 cycles: 5819438 heartbeat IPC: 1.80866 cumulative IPC: 1.71838 (Simulation time: 0 hr 4 min 27 sec) 
select_counter is 2045

Warmup complete CPU 0 instructions: 10000001 cycles: 5819438 (Simulation time: 0 hr 4 min 27 sec) 

Heartbeat CPU 0 instructions: 11000000 cycles: 6688538 heartbeat IPC: 1.15061 cumulative IPC: 1.15061 (Simulation time: 0 hr 4 min 51 sec) 
select_counter is 2047
Heartbeat CPU 0 instructions: 12000000 cycles: 7574730 heartbeat IPC: 1.12842 cumulative IPC: 1.13941 (Simulation time: 0 hr 5 min 15 sec) 
select_counter is 2045
Heartbeat CPU 0 instructions: 13000003 cycles: 8468922 heartbeat IPC: 1.11833 cumulative IPC: 1.1323 (Simulation time: 0 hr 5 min 40 sec) 
select_counter is 2046
Heartbeat CPU 0 instructions: 14000002 cycles: 9359590 heartbeat IPC: 1.12275 cumulative IPC: 1.1299 (Simulation time: 0 hr 6 min 5 sec) 
select_counter is 2018
Heartbeat CPU 0 instructions: 15000001 cycles: 10191268 heartbeat IPC: 1.20239 cumulative IPC: 1.14369 (Simulation time: 0 hr 6 min 26 sec) 
select_counter is 1928
Heartbeat CPU 0 instructions: 16000000 cycles: 11014957 heartbeat IPC: 1.21405 cumulative IPC: 1.15484 (Simulation time: 0 hr 6 min 49 sec) 
select_counter is 1897
Heartbeat CPU 0 instructions: 17000002 cycles: 11849171 heartbeat IPC: 1.19874 cumulative IPC: 1.16091 (Simulation time: 0 hr 7 min 11 sec) 
select_counter is 1987
Heartbeat CPU 0 instructions: 18000003 cycles: 12656861 heartbeat IPC: 1.2381 cumulative IPC: 1.17003 (Simulation time: 0 hr 7 min 34 sec) 
select_counter is 2045
Heartbeat CPU 0 instructions: 19000000 cycles: 13458642 heartbeat IPC: 1.24722 cumulative IPC: 1.17813 (Simulation time: 0 hr 7 min 58 sec) 
select_counter is 2047
Heartbeat CPU 0 instructions: 20000000 cycles: 14254285 heartbeat IPC: 1.25685 cumulative IPC: 1.18556 (Simulation time: 0 hr 8 min 23 sec) 
select_counter is 2047
Heartbeat CPU 0 instructions: 21000000 cycles: 15043542 heartbeat IPC: 1.26701 cumulative IPC: 1.19253 (Simulation time: 0 hr 8 min 51 sec) 
select_counter is 2047
Heartbeat CPU 0 instructions: 22000000 cycles: 15865774 heartbeat IPC: 1.2162 cumulative IPC: 1.19447 (Simulation time: 0 hr 9 min 15 sec) 
select_counter is 2043
Heartbeat CPU 0 instructions: 23000003 cycles: 16808978 heartbeat IPC: 1.06022 cumulative IPC: 1.18294 (Simulation time: 0 hr 9 min 39 sec) 
select_counter is 1916
Heartbeat CPU 0 instructions: 24000000 cycles: 17735305 heartbeat IPC: 1.07953 cumulative IPC: 1.1749 (Simulation time: 0 hr 10 min 5 sec) 
select_counter is 1890
Heartbeat CPU 0 instructions: 25000000 cycles: 18666533 heartbeat IPC: 1.07385 cumulative IPC: 1.16758 (Simulation time: 0 hr 10 min 33 sec) 
select_counter is 1972
Heartbeat CPU 0 instructions: 26000003 cycles: 19588433 heartbeat IPC: 1.08472 cumulative IPC: 1.16203 (Simulation time: 0 hr 11 min 1 sec) 
select_counter is 2044
Heartbeat CPU 0 instructions: 27000003 cycles: 20511094 heartbeat IPC: 1.08382 cumulative IPC: 1.15712 (Simulation time: 0 hr 11 min 27 sec) 
select_counter is 2047
Heartbeat CPU 0 instructions: 28000000 cycles: 21435471 heartbeat IPC: 1.08181 cumulative IPC: 1.15266 (Simulation time: 0 hr 11 min 52 sec) 
select_counter is 2045
Heartbeat CPU 0 instructions: 29000003 cycles: 23141403 heartbeat IPC: 0.586192 cumulative IPC: 1.09687 (Simulation time: 0 hr 12 min 24 sec) 
select_counter is 2046
Heartbeat CPU 0 instructions: 30000000 cycles: 24866797 heartbeat IPC: 0.579576 cumulative IPC: 1.05001 (Simulation time: 0 hr 12 min 59 sec) 
select_counter is 2047
Heartbeat CPU 0 instructions: 31000003 cycles: 26764312 heartbeat IPC: 0.527007 cumulative IPC: 1.00263 (Simulation time: 0 hr 13 min 30 sec) 
select_counter is 1936
Heartbeat CPU 0 instructions: 32000000 cycles: 28531390 heartbeat IPC: 0.565904 cumulative IPC: 0.968653 (Simulation time: 0 hr 13 min 58 sec) 
select_counter is 2041
Heartbeat CPU 0 instructions: 33000001 cycles: 29971097 heartbeat IPC: 0.694586 cumulative IPC: 0.952316 (Simulation time: 0 hr 14 min 27 sec) 
select_counter is 2044
Heartbeat CPU 0 instructions: 34000002 cycles: 31469630 heartbeat IPC: 0.66732 cumulative IPC: 0.935666 (Simulation time: 0 hr 14 min 58 sec) 
select_counter is 2047
Heartbeat CPU 0 instructions: 35000001 cycles: 33280694 heartbeat IPC: 0.552161 cumulative IPC: 0.910374 (Simulation time: 0 hr 15 min 32 sec) 
select_counter is 1657
Heartbeat CPU 0 instructions: 36000000 cycles: 34243271 heartbeat IPC: 1.03888 cumulative IPC: 0.914725 (Simulation time: 0 hr 15 min 57 sec) 
select_counter is 1584
Heartbeat CPU 0 instructions: 37000001 cycles: 35208145 heartbeat IPC: 1.03641 cumulative IPC: 0.91872 (Simulation time: 0 hr 16 min 24 sec) 
select_counter is 1501
Heartbeat CPU 0 instructions: 38000003 cycles: 36163736 heartbeat IPC: 1.04647 cumulative IPC: 0.922743 (Simulation time: 0 hr 16 min 54 sec) 
select_counter is 1433
Heartbeat CPU 0 instructions: 39000002 cycles: 37159246 heartbeat IPC: 1.00451 cumulative IPC: 0.925341 (Simulation time: 0 hr 17 min 20 sec) 
select_counter is 1323
Heartbeat CPU 0 instructions: 40000000 cycles: 38117969 heartbeat IPC: 1.04305 cumulative IPC: 0.928835 (Simulation time: 0 hr 17 min 47 sec) 
select_counter is 1253
Heartbeat CPU 0 instructions: 41000000 cycles: 39086717 heartbeat IPC: 1.03226 cumulative IPC: 0.931847 (Simulation time: 0 hr 18 min 12 sec) 
select_counter is 1250
Heartbeat CPU 0 instructions: 42000002 cycles: 40032720 heartbeat IPC: 1.05708 cumulative IPC: 0.935309 (Simulation time: 0 hr 18 min 36 sec) 
select_counter is 1274
Heartbeat CPU 0 instructions: 43000002 cycles: 41000793 heartbeat IPC: 1.03298 cumulative IPC: 0.937997 (Simulation time: 0 hr 19 min 3 sec) 
select_counter is 1239
Heartbeat CPU 0 instructions: 44000000 cycles: 41898614 heartbeat IPC: 1.11381 cumulative IPC: 0.942372 (Simulation time: 0 hr 19 min 24 sec) 
select_counter is 1186
Heartbeat CPU 0 instructions: 45000000 cycles: 42764860 heartbeat IPC: 1.15441 cumulative IPC: 0.947343 (Simulation time: 0 hr 19 min 46 sec) 
select_counter is 1137
Heartbeat CPU 0 instructions: 46000001 cycles: 43655081 heartbeat IPC: 1.12332 cumulative IPC: 0.951484 (Simulation time: 0 hr 20 min 8 sec) 
select_counter is 1082
Heartbeat CPU 0 instructions: 47000001 cycles: 44557615 heartbeat IPC: 1.10799 cumulative IPC: 0.95513 (Simulation time: 0 hr 20 min 30 sec) 
select_counter is 1026
Heartbeat CPU 0 instructions: 48000000 cycles: 45455011 heartbeat IPC: 1.11433 cumulative IPC: 0.958735 (Simulation time: 0 hr 20 min 52 sec) 
select_counter is 977
Heartbeat CPU 0 instructions: 49000001 cycles: 46354356 heartbeat IPC: 1.11192 cumulative IPC: 0.962133 (Simulation time: 0 hr 21 min 14 sec) 
select_counter is 950
Heartbeat CPU 0 instructions: 50000002 cycles: 47245629 heartbeat IPC: 1.12199 cumulative IPC: 0.965573 (Simulation time: 0 hr 21 min 37 sec) 
select_counter is 988
Heartbeat CPU 0 instructions: 51000001 cycles: 48131126 heartbeat IPC: 1.12931 cumulative IPC: 0.968999 (Simulation time: 0 hr 22 min 3 sec) 
select_counter is 1013
Heartbeat CPU 0 instructions: 52000000 cycles: 49063370 heartbeat IPC: 1.07268 cumulative IPC: 0.971235 (Simulation time: 0 hr 22 min 27 sec) 
select_counter is 1011
Heartbeat CPU 0 instructions: 53000002 cycles: 50030356 heartbeat IPC: 1.03414 cumulative IPC: 0.97261 (Simulation time: 0 hr 22 min 52 sec) 
select_counter is 955
Heartbeat CPU 0 instructions: 54000001 cycles: 51037178 heartbeat IPC: 0.993223 cumulative IPC: 0.973069 (Simulation time: 0 hr 23 min 19 sec) 
select_counter is 870
Heartbeat CPU 0 instructions: 55000003 cycles: 52041829 heartbeat IPC: 0.995373 cumulative IPC: 0.973554 (Simulation time: 0 hr 23 min 46 sec) 
select_counter is 762
Heartbeat CPU 0 instructions: 56000000 cycles: 53053044 heartbeat IPC: 0.988906 cumulative IPC: 0.973883 (Simulation time: 0 hr 24 min 13 sec) 
select_counter is 699
Heartbeat CPU 0 instructions: 57000001 cycles: 54046906 heartbeat IPC: 1.00618 cumulative IPC: 0.974548 (Simulation time: 0 hr 24 min 38 sec) 
select_counter is 726
Heartbeat CPU 0 instructions: 58000000 cycles: 55039899 heartbeat IPC: 1.00706 cumulative IPC: 0.975204 (Simulation time: 0 hr 25 min 4 sec) 
select_counter is 743
Heartbeat CPU 0 instructions: 59000001 cycles: 56854972 heartbeat IPC: 0.550943 cumulative IPC: 0.960115 (Simulation time: 0 hr 25 min 35 sec) 
select_counter is 298
Heartbeat CPU 0 instructions: 60000000 cycles: 58549130 heartbeat IPC: 0.590263 cumulative IPC: 0.948232 (Simulation time: 0 hr 26 min 3 sec) 
select_counter is 1995
Heartbeat CPU 0 instructions: 61000000 cycles: 60533947 heartbeat IPC: 0.503825 cumulative IPC: 0.932111 (Simulation time: 0 hr 26 min 33 sec) 
select_counter is 1247
Heartbeat CPU 0 instructions: 62000000 cycles: 62194947 heartbeat IPC: 0.602047 cumulative IPC: 0.922386 (Simulation time: 0 hr 27 min 1 sec) 
select_counter is 1193
Heartbeat CPU 0 instructions: 63000001 cycles: 63641557 heartbeat IPC: 0.691272 cumulative IPC: 0.916604 (Simulation time: 0 hr 27 min 29 sec) 
select_counter is 909
Heartbeat CPU 0 instructions: 64000000 cycles: 65161690 heartbeat IPC: 0.657836 cumulative IPC: 0.909976 (Simulation time: 0 hr 28 min 1 sec) 
select_counter is 890
Heartbeat CPU 0 instructions: 65000003 cycles: 66656518 heartbeat IPC: 0.668975 cumulative IPC: 0.904054 (Simulation time: 0 hr 28 min 31 sec) 
select_counter is 890
Heartbeat CPU 0 instructions: 66000000 cycles: 68152092 heartbeat IPC: 0.668638 cumulative IPC: 0.898405 (Simulation time: 0 hr 28 min 58 sec) 
select_counter is 891
Heartbeat CPU 0 instructions: 67000000 cycles: 69646610 heartbeat IPC: 0.669112 cumulative IPC: 0.893037 (Simulation time: 0 hr 29 min 25 sec) 
select_counter is 893
Heartbeat CPU 0 instructions: 68000000 cycles: 71141537 heartbeat IPC: 0.668929 cumulative IPC: 0.887908 (Simulation time: 0 hr 29 min 52 sec) 
select_counter is 907
Heartbeat CPU 0 instructions: 69000000 cycles: 72648781 heartbeat IPC: 0.663463 cumulative IPC: 0.882846 (Simulation time: 0 hr 30 min 23 sec) 
select_counter is 911
Heartbeat CPU 0 instructions: 70000001 cycles: 74145360 heartbeat IPC: 0.668191 cumulative IPC: 0.878144 (Simulation time: 0 hr 30 min 53 sec) 
select_counter is 925
Heartbeat CPU 0 instructions: 71000001 cycles: 75639426 heartbeat IPC: 0.669315 cumulative IPC: 0.873675 (Simulation time: 0 hr 31 min 22 sec) 
select_counter is 934
Heartbeat CPU 0 instructions: 72000000 cycles: 77122379 heartbeat IPC: 0.67433 cumulative IPC: 0.869529 (Simulation time: 0 hr 31 min 53 sec) 
select_counter is 944
Heartbeat CPU 0 instructions: 73000003 cycles: 78610088 heartbeat IPC: 0.672176 cumulative IPC: 0.865496 (Simulation time: 0 hr 32 min 20 sec) 
select_counter is 955
Heartbeat CPU 0 instructions: 74000000 cycles: 80107617 heartbeat IPC: 0.667765 cumulative IPC: 0.86151 (Simulation time: 0 hr 32 min 50 sec) 
select_counter is 970
Heartbeat CPU 0 instructions: 75000001 cycles: 81601588 heartbeat IPC: 0.669358 cumulative IPC: 0.857722 (Simulation time: 0 hr 33 min 18 sec) 
select_counter is 986
Heartbeat CPU 0 instructions: 76000000 cycles: 83098017 heartbeat IPC: 0.668257 cumulative IPC: 0.854053 (Simulation time: 0 hr 33 min 48 sec) 
select_counter is 999
Heartbeat CPU 0 instructions: 77000003 cycles: 84591811 heartbeat IPC: 0.669438 cumulative IPC: 0.850552 (Simulation time: 0 hr 34 min 17 sec) 
select_counter is 1011
Heartbeat CPU 0 instructions: 78000001 cycles: 86086506 heartbeat IPC: 0.669032 cumulative IPC: 0.847172 (Simulation time: 0 hr 34 min 43 sec) 
select_counter is 1020
Heartbeat CPU 0 instructions: 79000000 cycles: 87582936 heartbeat IPC: 0.668256 cumulative IPC: 0.843897 (Simulation time: 0 hr 35 min 9 sec) 
select_counter is 1023
Heartbeat CPU 0 instructions: 80000000 cycles: 89073322 heartbeat IPC: 0.670967 cumulative IPC: 0.840802 (Simulation time: 0 hr 35 min 34 sec) 
select_counter is 1043
Heartbeat CPU 0 instructions: 81000001 cycles: 90557257 heartbeat IPC: 0.673885 cumulative IPC: 0.837879 (Simulation time: 0 hr 35 min 59 sec) 
select_counter is 1049
Heartbeat CPU 0 instructions: 82000000 cycles: 92040223 heartbeat IPC: 0.674324 cumulative IPC: 0.835065 (Simulation time: 0 hr 36 min 23 sec) 
select_counter is 1058
Heartbeat CPU 0 instructions: 83000000 cycles: 93523576 heartbeat IPC: 0.674148 cumulative IPC: 0.832344 (Simulation time: 0 hr 36 min 48 sec) 
select_counter is 1076
Heartbeat CPU 0 instructions: 84000000 cycles: 95018479 heartbeat IPC: 0.66894 cumulative IPC: 0.829605 (Simulation time: 0 hr 37 min 14 sec) 
select_counter is 1091
Heartbeat CPU 0 instructions: 85000000 cycles: 96513361 heartbeat IPC: 0.668949 cumulative IPC: 0.826957 (Simulation time: 0 hr 37 min 36 sec) 
select_counter is 1101
Heartbeat CPU 0 instructions: 86000000 cycles: 98007800 heartbeat IPC: 0.669147 cumulative IPC: 0.824399 (Simulation time: 0 hr 38 min 1 sec) 
select_counter is 1115
Heartbeat CPU 0 instructions: 87000000 cycles: 99502650 heartbeat IPC: 0.668963 cumulative IPC: 0.821919 (Simulation time: 0 hr 38 min 26 sec) 
select_counter is 1119
Heartbeat CPU 0 instructions: 88000000 cycles: 100997875 heartbeat IPC: 0.668796 cumulative IPC: 0.819513 (Simulation time: 0 hr 38 min 49 sec) 
select_counter is 1138
Heartbeat CPU 0 instructions: 89000002 cycles: 102493504 heartbeat IPC: 0.668616 cumulative IPC: 0.817179 (Simulation time: 0 hr 39 min 10 sec) 
select_counter is 1149
Heartbeat CPU 0 instructions: 90000000 cycles: 103977841 heartbeat IPC: 0.6737 cumulative IPC: 0.815009 (Simulation time: 0 hr 39 min 31 sec) 
select_counter is 1157
Heartbeat CPU 0 instructions: 91000000 cycles: 105461439 heartbeat IPC: 0.674037 cumulative IPC: 0.81291 (Simulation time: 0 hr 39 min 51 sec) 
select_counter is 1175
Heartbeat CPU 0 instructions: 92000000 cycles: 106945280 heartbeat IPC: 0.673927 cumulative IPC: 0.810871 (Simulation time: 0 hr 40 min 11 sec) 
select_counter is 1180
Heartbeat CPU 0 instructions: 93000000 cycles: 108435021 heartbeat IPC: 0.671258 cumulative IPC: 0.808844 (Simulation time: 0 hr 40 min 30 sec) 
select_counter is 1192
Heartbeat CPU 0 instructions: 94000003 cycles: 109928988 heartbeat IPC: 0.669361 cumulative IPC: 0.806842 (Simulation time: 0 hr 40 min 47 sec) 
select_counter is 1202
Heartbeat CPU 0 instructions: 95000000 cycles: 111425132 heartbeat IPC: 0.668383 cumulative IPC: 0.804881 (Simulation time: 0 hr 41 min 3 sec) 
select_counter is 1210
Heartbeat CPU 0 instructions: 96000000 cycles: 112919081 heartbeat IPC: 0.669367 cumulative IPC: 0.802991 (Simulation time: 0 hr 41 min 19 sec) 
select_counter is 1221
Heartbeat CPU 0 instructions: 97000001 cycles: 114414632 heartbeat IPC: 0.668651 cumulative IPC: 0.80114 (Simulation time: 0 hr 41 min 35 sec) 
select_counter is 1234
Heartbeat CPU 0 instructions: 98000003 cycles: 115909992 heartbeat IPC: 0.668737 cumulative IPC: 0.799342 (Simulation time: 0 hr 41 min 51 sec) 
select_counter is 1243
Heartbeat CPU 0 instructions: 99000000 cycles: 117399094 heartbeat IPC: 0.671544 cumulative IPC: 0.797636 (Simulation time: 0 hr 42 min 7 sec) 
select_counter is 1251
Heartbeat CPU 0 instructions: 100000000 cycles: 118882489 heartbeat IPC: 0.674129 cumulative IPC: 0.796016 (Simulation time: 0 hr 42 min 23 sec) 
select_counter is 1261
Heartbeat CPU 0 instructions: 101000000 cycles: 120365697 heartbeat IPC: 0.674214 cumulative IPC: 0.794439 (Simulation time: 0 hr 42 min 39 sec) 
select_counter is 1275
Heartbeat CPU 0 instructions: 102000003 cycles: 121849280 heartbeat IPC: 0.674046 cumulative IPC: 0.792899 (Simulation time: 0 hr 42 min 54 sec) 
select_counter is 1288
Heartbeat CPU 0 instructions: 103000003 cycles: 123345546 heartbeat IPC: 0.66833 cumulative IPC: 0.791314 (Simulation time: 0 hr 43 min 11 sec) 
select_counter is 1298
Heartbeat CPU 0 instructions: 104000000 cycles: 124840083 heartbeat IPC: 0.669102 cumulative IPC: 0.789779 (Simulation time: 0 hr 43 min 27 sec) 
select_counter is 1308
Heartbeat CPU 0 instructions: 105000000 cycles: 126334897 heartbeat IPC: 0.66898 cumulative IPC: 0.788281 (Simulation time: 0 hr 43 min 43 sec) 
select_counter is 1327
Heartbeat CPU 0 instructions: 106000000 cycles: 127829960 heartbeat IPC: 0.668868 cumulative IPC: 0.786817 (Simulation time: 0 hr 43 min 57 sec) 
select_counter is 1334
Heartbeat CPU 0 instructions: 107000000 cycles: 129325808 heartbeat IPC: 0.668517 cumulative IPC: 0.785385 (Simulation time: 0 hr 44 min 10 sec) 
select_counter is 1354
Heartbeat CPU 0 instructions: 108000000 cycles: 130821389 heartbeat IPC: 0.668636 cumulative IPC: 0.783988 (Simulation time: 0 hr 44 min 22 sec) 
select_counter is 1365
Heartbeat CPU 0 instructions: 109000003 cycles: 132304249 heartbeat IPC: 0.674375 cumulative IPC: 0.782703 (Simulation time: 0 hr 44 min 34 sec) 
select_counter is 1372
Heartbeat CPU 0 instructions: 110000001 cycles: 133787454 heartbeat IPC: 0.674214 cumulative IPC: 0.781445 (Simulation time: 0 hr 44 min 45 sec) 
select_counter is 1390
Finished CPU 0 instructions: 100000000 cycles: 127968016 cummulative IPC: 0.781445 (Simulation time: 0 hr 44 min 45 sec) 

ChampSim completed all CPUs

Region of Interest Statistics

CPU 0 cummulative IPC: 0.781445 instructions: 100000000 cycles: 127968016
LLC TOTAL     ACCESS:    1495387  HIT:     493636  MISS:    1001751
LLC LOAD      ACCESS:      90364  HIT:      27817  MISS:      62547
LLC RFO       ACCESS:     219210  HIT:      35113  MISS:     184097
LLC PREFETCH  ACCESS:     749669  HIT:     147047  MISS:     602622
LLC WRITEBACK ACCESS:     436144  HIT:     283659  MISS:     152485
Ship samples: 
28, 49, 76, 107, 131, 175, 192, 240, 282, 304, 328, 368, 384, 430, 474, 496, 514, 572, 586, 627, 643, 701, 713, 754, 773, 815, 847, 880, 920, 952, 980, 1000, 1035, 1077, 1111, 1134, 1152, 1187, 1220, 1266, 1302, 1334, 1360, 1389, 1438, 1443, 1480, 1522, 1566, 1592, 1610, 1647, 1688, 1719, 1753, 1763, 1802, 1828, 1886, 1898, 1937, 1955, 1991, 2022, 
Lime duel samples: 
7, 45, 69, 104, 132, 188, 207, 231, 271, 312, 331, 364, 387, 440, 457, 501, 534, 546, 590, 615, 653, 674, 707, 749, 772, 803, 845, 895, 911, 959, 978, 1001, 1046, 1060, 1099, 1123, 1177, 1201, 1229, 1255, 1287, 1312, 1365, 1381, 1423, 1471, 1479, 1529, 1548, 1575, 1621, 1638, 1674, 1714, 1756, 1770, 1807, 1849, 1882, 1906, 1948, 1965, 2009, 2037, 
Lime samples: 
7, 104, 207, 312, 387, 501, 590, 674, 772, 895, 978, 1060, 1177, 1255, 1365, 1471, 1548, 1638, 1756, 1849, 1948, 
Insertion Distribution: 
	LOAD 152 0 0 0 0 0 645 4544 
	RFO 13091 0 0 0 0 0 5386 8625 
	PREF 0 149 0 0 0 0 3381 25993 
	WRITEBACK 0 0 0 0 0 0 0 14156 
Total Prefetch Downgrades: 106
