
*** ChampSim Multicore Out-of-Order Simulator ***

Warmup Instructions: 10000000
Simulation Instructions: 100000000
Configuration: 2
Number of CPUs: 1
LLC sets: 2048
LLC ways: 16
Off-chip DRAM Channels: 1 Width: 64-bit Data Rate: 1600 MT/s

CPU 0 runs /datasets/cs240c-wi22-a00-public/data/Assignment2-gz/mcf_250B.trace.gz
CPU 0 L1D next line prefetcher
CPU 0 L2C IP-based stride prefetcher
Heartbeat CPU 0 instructions: 1000000 cycles: 536065 heartbeat IPC: 1.86545 cumulative IPC: 1.86545 (Simulation time: 0 hr 0 min 32 sec) 
select_counter is 902
Heartbeat CPU 0 instructions: 2000003 cycles: 1051300 heartbeat IPC: 1.94087 cumulative IPC: 1.90241 (Simulation time: 0 hr 1 min 9 sec) 
select_counter is 2007
Heartbeat CPU 0 instructions: 3000002 cycles: 1547615 heartbeat IPC: 2.01485 cumulative IPC: 1.93847 (Simulation time: 0 hr 1 min 41 sec) 
select_counter is 1159
Heartbeat CPU 0 instructions: 4000000 cycles: 2057859 heartbeat IPC: 1.95984 cumulative IPC: 1.94377 (Simulation time: 0 hr 2 min 12 sec) 
select_counter is 685
Heartbeat CPU 0 instructions: 5000002 cycles: 2562763 heartbeat IPC: 1.98058 cumulative IPC: 1.95102 (Simulation time: 0 hr 2 min 45 sec) 
select_counter is 2024
Heartbeat CPU 0 instructions: 6000002 cycles: 3067123 heartbeat IPC: 1.98271 cumulative IPC: 1.95623 (Simulation time: 0 hr 3 min 23 sec) 
select_counter is 1341
Heartbeat CPU 0 instructions: 7000002 cycles: 3606584 heartbeat IPC: 1.8537 cumulative IPC: 1.9409 (Simulation time: 0 hr 3 min 56 sec) 
select_counter is 1280
Heartbeat CPU 0 instructions: 8000000 cycles: 4120506 heartbeat IPC: 1.94582 cumulative IPC: 1.94151 (Simulation time: 0 hr 4 min 31 sec) 
select_counter is 488
Heartbeat CPU 0 instructions: 9000002 cycles: 4633463 heartbeat IPC: 1.94949 cumulative IPC: 1.94239 (Simulation time: 0 hr 5 min 2 sec) 
select_counter is 1931
Heartbeat CPU 0 instructions: 10000000 cycles: 5143519 heartbeat IPC: 1.96057 cumulative IPC: 1.94419 (Simulation time: 0 hr 5 min 40 sec) 
select_counter is 1509

Warmup complete CPU 0 instructions: 10000003 cycles: 5143520 (Simulation time: 0 hr 5 min 40 sec) 

Heartbeat CPU 0 instructions: 11000001 cycles: 14435372 heartbeat IPC: 0.107621 cumulative IPC: 0.107621 (Simulation time: 0 hr 6 min 27 sec) 
select_counter is 993
Heartbeat CPU 0 instructions: 12000000 cycles: 28085600 heartbeat IPC: 0.0732588 cumulative IPC: 0.0871759 (Simulation time: 0 hr 7 min 26 sec) 
select_counter is 594
Heartbeat CPU 0 instructions: 13000001 cycles: 40691890 heartbeat IPC: 0.0793256 cumulative IPC: 0.084392 (Simulation time: 0 hr 8 min 21 sec) 
select_counter is 1736
Heartbeat CPU 0 instructions: 14000003 cycles: 50218663 heartbeat IPC: 0.104968 cumulative IPC: 0.0887407 (Simulation time: 0 hr 9 min 8 sec) 
select_counter is 1028
Heartbeat CPU 0 instructions: 15000002 cycles: 58901012 heartbeat IPC: 0.115176 cumulative IPC: 0.0930103 (Simulation time: 0 hr 9 min 51 sec) 
select_counter is 1933
Heartbeat CPU 0 instructions: 16000000 cycles: 67895833 heartbeat IPC: 0.111175 cumulative IPC: 0.095614 (Simulation time: 0 hr 10 min 38 sec) 
select_counter is 869
Heartbeat CPU 0 instructions: 17000000 cycles: 76469117 heartbeat IPC: 0.116641 cumulative IPC: 0.0981414 (Simulation time: 0 hr 11 min 24 sec) 
select_counter is 256
Heartbeat CPU 0 instructions: 18000002 cycles: 84620184 heartbeat IPC: 0.122684 cumulative IPC: 0.100658 (Simulation time: 0 hr 12 min 7 sec) 
select_counter is 1754
Heartbeat CPU 0 instructions: 19000000 cycles: 93623683 heartbeat IPC: 0.111068 cumulative IPC: 0.101718 (Simulation time: 0 hr 12 min 54 sec) 
select_counter is 1218
Heartbeat CPU 0 instructions: 20000000 cycles: 102463801 heartbeat IPC: 0.113121 cumulative IPC: 0.102753 (Simulation time: 0 hr 13 min 41 sec) 
select_counter is 442
Heartbeat CPU 0 instructions: 21000000 cycles: 110360050 heartbeat IPC: 0.126642 cumulative IPC: 0.104546 (Simulation time: 0 hr 14 min 25 sec) 
select_counter is 1915
Heartbeat CPU 0 instructions: 22000000 cycles: 118865010 heartbeat IPC: 0.117578 cumulative IPC: 0.105521 (Simulation time: 0 hr 15 min 12 sec) 
select_counter is 1240
Heartbeat CPU 0 instructions: 23000003 cycles: 127670888 heartbeat IPC: 0.113561 cumulative IPC: 0.106099 (Simulation time: 0 hr 15 min 56 sec) 
select_counter is 461
Heartbeat CPU 0 instructions: 24000000 cycles: 135676559 heartbeat IPC: 0.124911 cumulative IPC: 0.107253 (Simulation time: 0 hr 16 min 38 sec) 
select_counter is 61
Heartbeat CPU 0 instructions: 25000002 cycles: 144680644 heartbeat IPC: 0.111061 cumulative IPC: 0.107498 (Simulation time: 0 hr 17 min 22 sec) 
select_counter is 1223
Heartbeat CPU 0 instructions: 26000000 cycles: 153562509 heartbeat IPC: 0.112589 cumulative IPC: 0.107803 (Simulation time: 0 hr 18 min 9 sec) 
select_counter is 345
Heartbeat CPU 0 instructions: 27000003 cycles: 162110295 heartbeat IPC: 0.11699 cumulative IPC: 0.108303 (Simulation time: 0 hr 18 min 58 sec) 
select_counter is 1768
Heartbeat CPU 0 instructions: 28000000 cycles: 171599291 heartbeat IPC: 0.105385 cumulative IPC: 0.108137 (Simulation time: 0 hr 19 min 46 sec) 
select_counter is 1136
Heartbeat CPU 0 instructions: 29000000 cycles: 180665748 heartbeat IPC: 0.110297 cumulative IPC: 0.108248 (Simulation time: 0 hr 20 min 32 sec) 
select_counter is 200
Heartbeat CPU 0 instructions: 30000001 cycles: 189619613 heartbeat IPC: 0.111684 cumulative IPC: 0.108415 (Simulation time: 0 hr 21 min 15 sec) 
select_counter is 1579
Heartbeat CPU 0 instructions: 31000000 cycles: 198830112 heartbeat IPC: 0.108572 cumulative IPC: 0.108423 (Simulation time: 0 hr 22 min 0 sec) 
select_counter is 624
Heartbeat CPU 0 instructions: 32000000 cycles: 207319406 heartbeat IPC: 0.117795 cumulative IPC: 0.108816 (Simulation time: 0 hr 22 min 40 sec) 
select_counter is 1691
Heartbeat CPU 0 instructions: 33000000 cycles: 216546384 heartbeat IPC: 0.108378 cumulative IPC: 0.108797 (Simulation time: 0 hr 23 min 23 sec) 
select_counter is 840
Heartbeat CPU 0 instructions: 34000000 cycles: 224889242 heartbeat IPC: 0.119863 cumulative IPC: 0.109217 (Simulation time: 0 hr 24 min 6 sec) 
select_counter is 2035
Heartbeat CPU 0 instructions: 35000000 cycles: 236364116 heartbeat IPC: 0.0871469 cumulative IPC: 0.108122 (Simulation time: 0 hr 24 min 55 sec) 
select_counter is 1553
Heartbeat CPU 0 instructions: 36000000 cycles: 250538421 heartbeat IPC: 0.0705502 cumulative IPC: 0.105952 (Simulation time: 0 hr 25 min 50 sec) 
select_counter is 1516
Heartbeat CPU 0 instructions: 37000002 cycles: 260146530 heartbeat IPC: 0.104079 cumulative IPC: 0.105881 (Simulation time: 0 hr 26 min 37 sec) 
select_counter is 587
Heartbeat CPU 0 instructions: 38000000 cycles: 268931317 heartbeat IPC: 0.113833 cumulative IPC: 0.106146 (Simulation time: 0 hr 27 min 22 sec) 
select_counter is 1817
Heartbeat CPU 0 instructions: 39000000 cycles: 278248256 heartbeat IPC: 0.107331 cumulative IPC: 0.106186 (Simulation time: 0 hr 28 min 8 sec) 
select_counter is 991
Heartbeat CPU 0 instructions: 40000000 cycles: 286933160 heartbeat IPC: 0.115142 cumulative IPC: 0.106462 (Simulation time: 0 hr 28 min 58 sec) 
select_counter is 156
Heartbeat CPU 0 instructions: 41000000 cycles: 296071365 heartbeat IPC: 0.109431 cumulative IPC: 0.106556 (Simulation time: 0 hr 29 min 43 sec) 
select_counter is 1284
Heartbeat CPU 0 instructions: 42000000 cycles: 305103610 heartbeat IPC: 0.110714 cumulative IPC: 0.106681 (Simulation time: 0 hr 30 min 30 sec) 
select_counter is 383
Heartbeat CPU 0 instructions: 43000000 cycles: 313560009 heartbeat IPC: 0.118254 cumulative IPC: 0.106998 (Simulation time: 0 hr 31 min 13 sec) 
select_counter is 1635
Heartbeat CPU 0 instructions: 44000000 cycles: 322798234 heartbeat IPC: 0.108246 cumulative IPC: 0.107034 (Simulation time: 0 hr 32 min 1 sec) 
select_counter is 795
Heartbeat CPU 0 instructions: 45000001 cycles: 331263157 heartbeat IPC: 0.118135 cumulative IPC: 0.107323 (Simulation time: 0 hr 32 min 44 sec) 
select_counter is 65
Heartbeat CPU 0 instructions: 46000000 cycles: 340593901 heartbeat IPC: 0.107172 cumulative IPC: 0.107318 (Simulation time: 0 hr 33 min 30 sec) 
select_counter is 1294
Heartbeat CPU 0 instructions: 47000002 cycles: 349756027 heartbeat IPC: 0.109145 cumulative IPC: 0.107367 (Simulation time: 0 hr 34 min 17 sec) 
select_counter is 645
Heartbeat CPU 0 instructions: 48000000 cycles: 357969442 heartbeat IPC: 0.121752 cumulative IPC: 0.107702 (Simulation time: 0 hr 34 min 59 sec) 
select_counter is 1790
Heartbeat CPU 0 instructions: 49000000 cycles: 367559061 heartbeat IPC: 0.104279 cumulative IPC: 0.107611 (Simulation time: 0 hr 35 min 43 sec) 
select_counter is 874
Heartbeat CPU 0 instructions: 50000002 cycles: 376155165 heartbeat IPC: 0.116332 cumulative IPC: 0.107813 (Simulation time: 0 hr 36 min 25 sec) 
select_counter is 1979
Heartbeat CPU 0 instructions: 51000002 cycles: 385536524 heartbeat IPC: 0.106594 cumulative IPC: 0.107783 (Simulation time: 0 hr 37 min 3 sec) 
select_counter is 1359
Heartbeat CPU 0 instructions: 52000000 cycles: 394775174 heartbeat IPC: 0.108241 cumulative IPC: 0.107794 (Simulation time: 0 hr 37 min 41 sec) 
select_counter is 629
Heartbeat CPU 0 instructions: 53000000 cycles: 403166515 heartbeat IPC: 0.11917 cumulative IPC: 0.108034 (Simulation time: 0 hr 38 min 16 sec) 
select_counter is 259
Heartbeat CPU 0 instructions: 54000000 cycles: 411820669 heartbeat IPC: 0.115551 cumulative IPC: 0.108194 (Simulation time: 0 hr 38 min 50 sec) 
select_counter is 1787
Heartbeat CPU 0 instructions: 55000000 cycles: 420950345 heartbeat IPC: 0.109533 cumulative IPC: 0.108223 (Simulation time: 0 hr 39 min 26 sec) 
select_counter is 1041
Heartbeat CPU 0 instructions: 56000000 cycles: 430007563 heartbeat IPC: 0.110409 cumulative IPC: 0.10827 (Simulation time: 0 hr 40 min 1 sec) 
select_counter is 515
Heartbeat CPU 0 instructions: 57000000 cycles: 438522319 heartbeat IPC: 0.117443 cumulative IPC: 0.10845 (Simulation time: 0 hr 40 min 30 sec) 
select_counter is 1781
Heartbeat CPU 0 instructions: 58000000 cycles: 447648566 heartbeat IPC: 0.109574 cumulative IPC: 0.108473 (Simulation time: 0 hr 40 min 57 sec) 
select_counter is 966
Heartbeat CPU 0 instructions: 59000001 cycles: 456316678 heartbeat IPC: 0.115365 cumulative IPC: 0.108606 (Simulation time: 0 hr 41 min 24 sec) 
select_counter is 321
Heartbeat CPU 0 instructions: 60000000 cycles: 464945691 heartbeat IPC: 0.115888 cumulative IPC: 0.108742 (Simulation time: 0 hr 41 min 52 sec) 
select_counter is 1479
Heartbeat CPU 0 instructions: 61000002 cycles: 474049556 heartbeat IPC: 0.109844 cumulative IPC: 0.108764 (Simulation time: 0 hr 42 min 17 sec) 
select_counter is 813
Heartbeat CPU 0 instructions: 62000000 cycles: 481480387 heartbeat IPC: 0.134574 cumulative IPC: 0.109166 (Simulation time: 0 hr 42 min 41 sec) 
select_counter is 431
Heartbeat CPU 0 instructions: 63000001 cycles: 489271170 heartbeat IPC: 0.128357 cumulative IPC: 0.109475 (Simulation time: 0 hr 43 min 5 sec) 
select_counter is 60
Heartbeat CPU 0 instructions: 64000000 cycles: 498070914 heartbeat IPC: 0.11364 cumulative IPC: 0.10955 (Simulation time: 0 hr 43 min 31 sec) 
select_counter is 1619
Heartbeat CPU 0 instructions: 65000000 cycles: 506607651 heartbeat IPC: 0.117141 cumulative IPC: 0.109679 (Simulation time: 0 hr 43 min 54 sec) 
select_counter is 1206
Heartbeat CPU 0 instructions: 66000000 cycles: 515421096 heartbeat IPC: 0.113463 cumulative IPC: 0.109744 (Simulation time: 0 hr 44 min 14 sec) 
select_counter is 969
Heartbeat CPU 0 instructions: 67000001 cycles: 524369450 heartbeat IPC: 0.111753 cumulative IPC: 0.109779 (Simulation time: 0 hr 44 min 34 sec) 
select_counter is 477
Heartbeat CPU 0 instructions: 68000000 cycles: 532623397 heartbeat IPC: 0.121154 cumulative IPC: 0.109957 (Simulation time: 0 hr 44 min 50 sec) 
select_counter is 26
Heartbeat CPU 0 instructions: 69000000 cycles: 541534846 heartbeat IPC: 0.112215 cumulative IPC: 0.109994 (Simulation time: 0 hr 45 min 4 sec) 
select_counter is 1443
Heartbeat CPU 0 instructions: 70000000 cycles: 550303617 heartbeat IPC: 0.114041 cumulative IPC: 0.110059 (Simulation time: 0 hr 45 min 18 sec) 
select_counter is 1038
Heartbeat CPU 0 instructions: 71000000 cycles: 558469931 heartbeat IPC: 0.122454 cumulative IPC: 0.110242 (Simulation time: 0 hr 45 min 30 sec) 
select_counter is 182
Heartbeat CPU 0 instructions: 72000000 cycles: 567180290 heartbeat IPC: 0.114806 cumulative IPC: 0.110313 (Simulation time: 0 hr 45 min 40 sec) 
select_counter is 1506
Heartbeat CPU 0 instructions: 73000000 cycles: 576052361 heartbeat IPC: 0.112713 cumulative IPC: 0.11035 (Simulation time: 0 hr 45 min 50 sec) 
select_counter is 973
Heartbeat CPU 0 instructions: 74000001 cycles: 584829964 heartbeat IPC: 0.113926 cumulative IPC: 0.110405 (Simulation time: 0 hr 45 min 58 sec) 
select_counter is 429
Heartbeat CPU 0 instructions: 75000002 cycles: 592721709 heartbeat IPC: 0.126715 cumulative IPC: 0.110624 (Simulation time: 0 hr 46 min 4 sec) 
select_counter is 1903
Heartbeat CPU 0 instructions: 76000000 cycles: 601617094 heartbeat IPC: 0.112418 cumulative IPC: 0.11065 (Simulation time: 0 hr 46 min 9 sec) 
select_counter is 1560
Heartbeat CPU 0 instructions: 77000003 cycles: 616068660 heartbeat IPC: 0.0691969 cumulative IPC: 0.10967 (Simulation time: 0 hr 46 min 16 sec) 
select_counter is 1701
Heartbeat CPU 0 instructions: 78000000 cycles: 626874130 heartbeat IPC: 0.0925454 cumulative IPC: 0.109372 (Simulation time: 0 hr 46 min 22 sec) 
select_counter is 1362
Heartbeat CPU 0 instructions: 79000000 cycles: 635832931 heartbeat IPC: 0.111622 cumulative IPC: 0.109404 (Simulation time: 0 hr 46 min 28 sec) 
select_counter is 955
Heartbeat CPU 0 instructions: 80000000 cycles: 644481779 heartbeat IPC: 0.115622 cumulative IPC: 0.109488 (Simulation time: 0 hr 46 min 34 sec) 
select_counter is 756
Heartbeat CPU 0 instructions: 81000001 cycles: 652942621 heartbeat IPC: 0.118192 cumulative IPC: 0.109602 (Simulation time: 0 hr 46 min 39 sec) 
select_counter is 435
Heartbeat CPU 0 instructions: 82000001 cycles: 660164078 heartbeat IPC: 0.138476 cumulative IPC: 0.10992 (Simulation time: 0 hr 46 min 44 sec) 
select_counter is 2042
Heartbeat CPU 0 instructions: 83000002 cycles: 668028171 heartbeat IPC: 0.12716 cumulative IPC: 0.110125 (Simulation time: 0 hr 46 min 49 sec) 
select_counter is 1745
Heartbeat CPU 0 instructions: 84000000 cycles: 675549224 heartbeat IPC: 0.13296 cumulative IPC: 0.110381 (Simulation time: 0 hr 46 min 55 sec) 
select_counter is 1490
Heartbeat CPU 0 instructions: 85000000 cycles: 683382619 heartbeat IPC: 0.127659 cumulative IPC: 0.11058 (Simulation time: 0 hr 47 min 0 sec) 
select_counter is 1347
Heartbeat CPU 0 instructions: 86000001 cycles: 691128592 heartbeat IPC: 0.129099 cumulative IPC: 0.11079 (Simulation time: 0 hr 47 min 5 sec) 
select_counter is 916
Heartbeat CPU 0 instructions: 87000001 cycles: 704630066 heartbeat IPC: 0.074066 cumulative IPC: 0.110081 (Simulation time: 0 hr 47 min 12 sec) 
select_counter is 910
Heartbeat CPU 0 instructions: 88000000 cycles: 715357394 heartbeat IPC: 0.0932198 cumulative IPC: 0.109826 (Simulation time: 0 hr 47 min 18 sec) 
select_counter is 442
Heartbeat CPU 0 instructions: 89000001 cycles: 722757138 heartbeat IPC: 0.13514 cumulative IPC: 0.110087 (Simulation time: 0 hr 47 min 23 sec) 
select_counter is 193
Heartbeat CPU 0 instructions: 90000001 cycles: 729425580 heartbeat IPC: 0.14996 cumulative IPC: 0.110454 (Simulation time: 0 hr 47 min 28 sec) 
select_counter is 1920
Heartbeat CPU 0 instructions: 91000000 cycles: 739847759 heartbeat IPC: 0.0959491 cumulative IPC: 0.110248 (Simulation time: 0 hr 47 min 34 sec) 
select_counter is 1923
Heartbeat CPU 0 instructions: 92000000 cycles: 749115834 heartbeat IPC: 0.107897 cumulative IPC: 0.110219 (Simulation time: 0 hr 47 min 39 sec) 
select_counter is 1170
Heartbeat CPU 0 instructions: 93000000 cycles: 758612859 heartbeat IPC: 0.105296 cumulative IPC: 0.110157 (Simulation time: 0 hr 47 min 45 sec) 
select_counter is 415
Heartbeat CPU 0 instructions: 94000000 cycles: 767230730 heartbeat IPC: 0.116038 cumulative IPC: 0.110224 (Simulation time: 0 hr 47 min 50 sec) 
select_counter is 1731
Heartbeat CPU 0 instructions: 95000000 cycles: 776481771 heartbeat IPC: 0.108096 cumulative IPC: 0.110198 (Simulation time: 0 hr 47 min 56 sec) 
select_counter is 1159
Heartbeat CPU 0 instructions: 96000000 cycles: 785643946 heartbeat IPC: 0.109144 cumulative IPC: 0.110186 (Simulation time: 0 hr 48 min 2 sec) 
select_counter is 554
Heartbeat CPU 0 instructions: 97000000 cycles: 793794765 heartbeat IPC: 0.122687 cumulative IPC: 0.110315 (Simulation time: 0 hr 48 min 7 sec) 
select_counter is 1910
Heartbeat CPU 0 instructions: 98000000 cycles: 803181830 heartbeat IPC: 0.10653 cumulative IPC: 0.11027 (Simulation time: 0 hr 48 min 13 sec) 
select_counter is 1529
Heartbeat CPU 0 instructions: 99000000 cycles: 812248490 heartbeat IPC: 0.110294 cumulative IPC: 0.110271 (Simulation time: 0 hr 48 min 19 sec) 
select_counter is 714
Heartbeat CPU 0 instructions: 100000000 cycles: 820508307 heartbeat IPC: 0.121068 cumulative IPC: 0.11038 (Simulation time: 0 hr 48 min 24 sec) 
select_counter is 154
Heartbeat CPU 0 instructions: 101000002 cycles: 828998217 heartbeat IPC: 0.117787 cumulative IPC: 0.110456 (Simulation time: 0 hr 48 min 30 sec) 
select_counter is 1955
Heartbeat CPU 0 instructions: 102000000 cycles: 838313409 heartbeat IPC: 0.107351 cumulative IPC: 0.110422 (Simulation time: 0 hr 48 min 36 sec) 
select_counter is 1384
Heartbeat CPU 0 instructions: 103000000 cycles: 847646837 heartbeat IPC: 0.107142 cumulative IPC: 0.110385 (Simulation time: 0 hr 48 min 41 sec) 
select_counter is 1147
Heartbeat CPU 0 instructions: 104000000 cycles: 856829350 heartbeat IPC: 0.108903 cumulative IPC: 0.110369 (Simulation time: 0 hr 48 min 47 sec) 
select_counter is 849
Heartbeat CPU 0 instructions: 105000000 cycles: 865129264 heartbeat IPC: 0.120483 cumulative IPC: 0.110467 (Simulation time: 0 hr 48 min 52 sec) 
select_counter is 2029
Heartbeat CPU 0 instructions: 106000002 cycles: 874667711 heartbeat IPC: 0.104839 cumulative IPC: 0.110405 (Simulation time: 0 hr 48 min 58 sec) 
select_counter is 1274
Heartbeat CPU 0 instructions: 107000003 cycles: 883572891 heartbeat IPC: 0.112294 cumulative IPC: 0.110424 (Simulation time: 0 hr 49 min 4 sec) 
select_counter is 335
Heartbeat CPU 0 instructions: 108000000 cycles: 892340481 heartbeat IPC: 0.114056 cumulative IPC: 0.11046 (Simulation time: 0 hr 49 min 9 sec) 
select_counter is 1639
Heartbeat CPU 0 instructions: 109000000 cycles: 901438447 heartbeat IPC: 0.109915 cumulative IPC: 0.110455 (Simulation time: 0 hr 49 min 15 sec) 
select_counter is 966
Heartbeat CPU 0 instructions: 110000000 cycles: 910330455 heartbeat IPC: 0.112461 cumulative IPC: 0.110474 (Simulation time: 0 hr 49 min 21 sec) 
select_counter is 383
Finished CPU 0 instructions: 100000000 cycles: 905186937 cummulative IPC: 0.110474 (Simulation time: 0 hr 49 min 21 sec) 

ChampSim completed all CPUs

Region of Interest Statistics

CPU 0 cummulative IPC: 0.110474 instructions: 100000000 cycles: 905186937
LLC TOTAL     ACCESS:   26973279  HIT:   11829842  MISS:   15143437
LLC LOAD      ACCESS:   11726674  HIT:    8883371  MISS:    2843303
LLC RFO       ACCESS:      27363  HIT:      14775  MISS:      12588
LLC PREFETCH  ACCESS:   14885417  HIT:    2656837  MISS:   12228580
LLC WRITEBACK ACCESS:     333825  HIT:     274859  MISS:      58966
Ship samples: 
8, 35, 67, 124, 130, 175, 195, 245, 272, 299, 345, 380, 400, 439, 462, 510, 513, 569, 599, 639, 671, 674, 717, 761, 799, 810, 857, 868, 926, 945, 990, 1020, 1026, 1085, 1094, 1144, 1172, 1198, 1230, 1266, 1285, 1313, 1347, 1377, 1414, 1447, 1497, 1508, 1560, 1590, 1614, 1650, 1682, 1719, 1735, 1791, 1798, 1831, 1887, 1906, 1935, 1963, 2011, 2027, 
Lime duel samples: 
3, 47, 69, 123, 151, 167, 216, 233, 274, 291, 323, 373, 413, 425, 475, 487, 534, 571, 605, 624, 670, 696, 713, 756, 784, 829, 852, 871, 899, 928, 965, 999, 1024, 1077, 1114, 1148, 1157, 1210, 1218, 1256, 1293, 1340, 1374, 1382, 1409, 1458, 1476, 1507, 1564, 1569, 1630, 1636, 1673, 1716, 1754, 1765, 1795, 1854, 1868, 1896, 1938, 1975, 2002, 2023, 
Lime samples: 
3, 123, 216, 291, 413, 487, 605, 696, 784, 871, 965, 1077, 1157, 1256, 1374, 1458, 1564, 1636, 1754, 1854, 1938, 
Insertion Distribution: 
	LOAD 57604 0 0 0 0 0 79786 303473 
	RFO 251 0 0 0 0 0 1041 570 
	PREF 0 187486 0 0 0 0 984990 2274935 
	WRITEBACK 0 0 0 0 0 0 0 9623 
Total Prefetch Downgrades: 532020
