
*** ChampSim Multicore Out-of-Order Simulator ***

Warmup Instructions: 10000000
Simulation Instructions: 100000000
Configuration: 2
Number of CPUs: 1
LLC sets: 2048
LLC ways: 16
Off-chip DRAM Channels: 1 Width: 64-bit Data Rate: 1600 MT/s

CPU 0 runs /datasets/cs240c-wi22-a00-public/data/Assignment2-gz/gcc_13B.trace.gz
CPU 0 L1D next line prefetcher
CPU 0 L2C IP-based stride prefetcher
Heartbeat CPU 0 instructions: 1000000 cycles: 633311 heartbeat IPC: 1.579 cumulative IPC: 1.579 (Simulation time: 0 hr 0 min 30 sec) 
select_counter is 948
Heartbeat CPU 0 instructions: 2000001 cycles: 1243579 heartbeat IPC: 1.63863 cumulative IPC: 1.60826 (Simulation time: 0 hr 1 min 1 sec) 
select_counter is 1140
Heartbeat CPU 0 instructions: 3000001 cycles: 1717239 heartbeat IPC: 2.11122 cumulative IPC: 1.74699 (Simulation time: 0 hr 1 min 29 sec) 
select_counter is 1126
Heartbeat CPU 0 instructions: 4000000 cycles: 2190618 heartbeat IPC: 2.11247 cumulative IPC: 1.82597 (Simulation time: 0 hr 1 min 53 sec) 
select_counter is 1269
Heartbeat CPU 0 instructions: 5000002 cycles: 2664537 heartbeat IPC: 2.11007 cumulative IPC: 1.8765 (Simulation time: 0 hr 2 min 15 sec) 
select_counter is 1395
Heartbeat CPU 0 instructions: 6000002 cycles: 3138312 heartbeat IPC: 2.11071 cumulative IPC: 1.91186 (Simulation time: 0 hr 2 min 38 sec) 
select_counter is 1525
Heartbeat CPU 0 instructions: 7000001 cycles: 3613678 heartbeat IPC: 2.10364 cumulative IPC: 1.93708 (Simulation time: 0 hr 3 min 1 sec) 
select_counter is 1664
Heartbeat CPU 0 instructions: 8000000 cycles: 4090387 heartbeat IPC: 2.09771 cumulative IPC: 1.95581 (Simulation time: 0 hr 3 min 24 sec) 
select_counter is 1677
Heartbeat CPU 0 instructions: 9000001 cycles: 4831232 heartbeat IPC: 1.34981 cumulative IPC: 1.86288 (Simulation time: 0 hr 3 min 51 sec) 
select_counter is 2047
Heartbeat CPU 0 instructions: 10000001 cycles: 5536056 heartbeat IPC: 1.41879 cumulative IPC: 1.80634 (Simulation time: 0 hr 4 min 24 sec) 
select_counter is 2028

Warmup complete CPU 0 instructions: 10000001 cycles: 5536056 (Simulation time: 0 hr 4 min 24 sec) 

Heartbeat CPU 0 instructions: 11000000 cycles: 12631665 heartbeat IPC: 0.140932 cumulative IPC: 0.140932 (Simulation time: 0 hr 5 min 7 sec) 
select_counter is 1985
Heartbeat CPU 0 instructions: 12000000 cycles: 19088649 heartbeat IPC: 0.154871 cumulative IPC: 0.147573 (Simulation time: 0 hr 5 min 44 sec) 
select_counter is 1930
Heartbeat CPU 0 instructions: 13000000 cycles: 25104599 heartbeat IPC: 0.166225 cumulative IPC: 0.153307 (Simulation time: 0 hr 6 min 21 sec) 
select_counter is 1868
Heartbeat CPU 0 instructions: 14000000 cycles: 30772900 heartbeat IPC: 0.17642 cumulative IPC: 0.158498 (Simulation time: 0 hr 7 min 4 sec) 
select_counter is 1772
Heartbeat CPU 0 instructions: 15000000 cycles: 33504903 heartbeat IPC: 0.366032 cumulative IPC: 0.17877 (Simulation time: 0 hr 7 min 38 sec) 
select_counter is 1403
Heartbeat CPU 0 instructions: 16000000 cycles: 35675273 heartbeat IPC: 0.460751 cumulative IPC: 0.199076 (Simulation time: 0 hr 8 min 10 sec) 
select_counter is 1367
Heartbeat CPU 0 instructions: 17000000 cycles: 37848773 heartbeat IPC: 0.460087 cumulative IPC: 0.216633 (Simulation time: 0 hr 8 min 40 sec) 
select_counter is 1407
Heartbeat CPU 0 instructions: 18000002 cycles: 40065716 heartbeat IPC: 0.451072 cumulative IPC: 0.231685 (Simulation time: 0 hr 9 min 7 sec) 
select_counter is 1304
Heartbeat CPU 0 instructions: 19000002 cycles: 42299129 heartbeat IPC: 0.447745 cumulative IPC: 0.244811 (Simulation time: 0 hr 9 min 34 sec) 
select_counter is 1213
Heartbeat CPU 0 instructions: 20000000 cycles: 44538059 heartbeat IPC: 0.446641 cumulative IPC: 0.256397 (Simulation time: 0 hr 10 min 2 sec) 
select_counter is 1112
Heartbeat CPU 0 instructions: 21000001 cycles: 46990146 heartbeat IPC: 0.407816 cumulative IPC: 0.265354 (Simulation time: 0 hr 10 min 30 sec) 
select_counter is 1032
Heartbeat CPU 0 instructions: 22000001 cycles: 51170193 heartbeat IPC: 0.239232 cumulative IPC: 0.262961 (Simulation time: 0 hr 11 min 9 sec) 
select_counter is 358
Heartbeat CPU 0 instructions: 23000002 cycles: 58191524 heartbeat IPC: 0.142423 cumulative IPC: 0.246888 (Simulation time: 0 hr 11 min 50 sec) 
select_counter is 397
Heartbeat CPU 0 instructions: 24000000 cycles: 64970087 heartbeat IPC: 0.147524 cumulative IPC: 0.235555 (Simulation time: 0 hr 12 min 29 sec) 
select_counter is 455
Heartbeat CPU 0 instructions: 25000000 cycles: 71164732 heartbeat IPC: 0.16143 cumulative IPC: 0.228559 (Simulation time: 0 hr 13 min 4 sec) 
select_counter is 493
Heartbeat CPU 0 instructions: 26000001 cycles: 76984280 heartbeat IPC: 0.171835 cumulative IPC: 0.223938 (Simulation time: 0 hr 13 min 38 sec) 
select_counter is 450
Heartbeat CPU 0 instructions: 27000000 cycles: 82348742 heartbeat IPC: 0.186412 cumulative IPC: 0.221318 (Simulation time: 0 hr 14 min 13 sec) 
select_counter is 412
Heartbeat CPU 0 instructions: 28000000 cycles: 84919941 heartbeat IPC: 0.388924 cumulative IPC: 0.226746 (Simulation time: 0 hr 14 min 47 sec) 
select_counter is 381
Heartbeat CPU 0 instructions: 29000000 cycles: 87022818 heartbeat IPC: 0.475539 cumulative IPC: 0.233167 (Simulation time: 0 hr 15 min 15 sec) 
select_counter is 354
Heartbeat CPU 0 instructions: 30000001 cycles: 89151685 heartbeat IPC: 0.469734 cumulative IPC: 0.23919 (Simulation time: 0 hr 15 min 43 sec) 
select_counter is 323
Heartbeat CPU 0 instructions: 31000000 cycles: 91301394 heartbeat IPC: 0.465179 cumulative IPC: 0.244854 (Simulation time: 0 hr 16 min 14 sec) 
select_counter is 210
Heartbeat CPU 0 instructions: 32000000 cycles: 93447868 heartbeat IPC: 0.46588 cumulative IPC: 0.250251 (Simulation time: 0 hr 16 min 42 sec) 
select_counter is 190
Heartbeat CPU 0 instructions: 33000000 cycles: 95605134 heartbeat IPC: 0.46355 cumulative IPC: 0.25536 (Simulation time: 0 hr 17 min 14 sec) 
select_counter is 104
Heartbeat CPU 0 instructions: 34000000 cycles: 98297018 heartbeat IPC: 0.371487 cumulative IPC: 0.25873 (Simulation time: 0 hr 17 min 45 sec) 
select_counter is 54
Heartbeat CPU 0 instructions: 35000000 cycles: 112701261 heartbeat IPC: 0.069424 cumulative IPC: 0.233285 (Simulation time: 0 hr 19 min 4 sec) 
select_counter is 1746
Heartbeat CPU 0 instructions: 36000000 cycles: 116553652 heartbeat IPC: 0.259579 cumulative IPC: 0.234197 (Simulation time: 0 hr 19 min 35 sec) 
select_counter is 1793
Heartbeat CPU 0 instructions: 37000003 cycles: 120386283 heartbeat IPC: 0.260918 cumulative IPC: 0.235089 (Simulation time: 0 hr 20 min 6 sec) 
select_counter is 1799
Heartbeat CPU 0 instructions: 38000000 cycles: 124236753 heartbeat IPC: 0.259708 cumulative IPC: 0.235887 (Simulation time: 0 hr 20 min 34 sec) 
select_counter is 1825
Heartbeat CPU 0 instructions: 39000000 cycles: 128004440 heartbeat IPC: 0.265415 cumulative IPC: 0.236796 (Simulation time: 0 hr 21 min 4 sec) 
select_counter is 1840
Heartbeat CPU 0 instructions: 40000000 cycles: 131678423 heartbeat IPC: 0.272184 cumulative IPC: 0.237827 (Simulation time: 0 hr 21 min 36 sec) 
select_counter is 1840
Heartbeat CPU 0 instructions: 41000000 cycles: 135320905 heartbeat IPC: 0.274538 cumulative IPC: 0.238857 (Simulation time: 0 hr 22 min 10 sec) 
select_counter is 1848
Heartbeat CPU 0 instructions: 42000000 cycles: 138984930 heartbeat IPC: 0.272924 cumulative IPC: 0.239792 (Simulation time: 0 hr 22 min 41 sec) 
select_counter is 1859
Heartbeat CPU 0 instructions: 43000002 cycles: 142652667 heartbeat IPC: 0.272648 cumulative IPC: 0.240671 (Simulation time: 0 hr 23 min 12 sec) 
select_counter is 1871
Heartbeat CPU 0 instructions: 44000000 cycles: 146314002 heartbeat IPC: 0.273124 cumulative IPC: 0.241515 (Simulation time: 0 hr 23 min 42 sec) 
select_counter is 1900
Heartbeat CPU 0 instructions: 45000001 cycles: 149944119 heartbeat IPC: 0.275473 cumulative IPC: 0.242369 (Simulation time: 0 hr 24 min 13 sec) 
select_counter is 1919
Heartbeat CPU 0 instructions: 46000001 cycles: 153552298 heartbeat IPC: 0.277148 cumulative IPC: 0.243217 (Simulation time: 0 hr 24 min 44 sec) 
select_counter is 1907
Heartbeat CPU 0 instructions: 47000001 cycles: 157146845 heartbeat IPC: 0.278199 cumulative IPC: 0.244046 (Simulation time: 0 hr 25 min 16 sec) 
select_counter is 1929
Heartbeat CPU 0 instructions: 48000000 cycles: 160714027 heartbeat IPC: 0.280333 cumulative IPC: 0.24488 (Simulation time: 0 hr 25 min 47 sec) 
select_counter is 1950
Heartbeat CPU 0 instructions: 49000000 cycles: 164298034 heartbeat IPC: 0.279017 cumulative IPC: 0.245651 (Simulation time: 0 hr 26 min 15 sec) 
select_counter is 1957
Heartbeat CPU 0 instructions: 50000003 cycles: 167879144 heartbeat IPC: 0.279244 cumulative IPC: 0.246392 (Simulation time: 0 hr 26 min 46 sec) 
select_counter is 1956
Heartbeat CPU 0 instructions: 51000001 cycles: 171460215 heartbeat IPC: 0.279245 cumulative IPC: 0.247101 (Simulation time: 0 hr 27 min 14 sec) 
select_counter is 1967
Heartbeat CPU 0 instructions: 52000000 cycles: 175025700 heartbeat IPC: 0.280466 cumulative IPC: 0.247803 (Simulation time: 0 hr 27 min 45 sec) 
select_counter is 1968
Heartbeat CPU 0 instructions: 53000001 cycles: 178606972 heartbeat IPC: 0.279231 cumulative IPC: 0.248453 (Simulation time: 0 hr 28 min 16 sec) 
select_counter is 1948
Heartbeat CPU 0 instructions: 54000000 cycles: 182181104 heartbeat IPC: 0.279788 cumulative IPC: 0.249087 (Simulation time: 0 hr 28 min 47 sec) 
select_counter is 1954
Heartbeat CPU 0 instructions: 55000000 cycles: 185764738 heartbeat IPC: 0.279046 cumulative IPC: 0.249683 (Simulation time: 0 hr 29 min 17 sec) 
select_counter is 1952
Heartbeat CPU 0 instructions: 56000000 cycles: 189338086 heartbeat IPC: 0.27985 cumulative IPC: 0.250269 (Simulation time: 0 hr 29 min 46 sec) 
select_counter is 1943
Heartbeat CPU 0 instructions: 57000002 cycles: 192877787 heartbeat IPC: 0.28251 cumulative IPC: 0.250878 (Simulation time: 0 hr 30 min 16 sec) 
select_counter is 1930
Heartbeat CPU 0 instructions: 58000001 cycles: 196423178 heartbeat IPC: 0.282056 cumulative IPC: 0.251458 (Simulation time: 0 hr 30 min 45 sec) 
select_counter is 1907
Heartbeat CPU 0 instructions: 59000003 cycles: 199941126 heartbeat IPC: 0.284257 cumulative IPC: 0.252051 (Simulation time: 0 hr 31 min 19 sec) 
select_counter is 1900
Heartbeat CPU 0 instructions: 60000000 cycles: 203456178 heartbeat IPC: 0.28449 cumulative IPC: 0.252627 (Simulation time: 0 hr 31 min 50 sec) 
select_counter is 1899
Heartbeat CPU 0 instructions: 61000000 cycles: 206967374 heartbeat IPC: 0.284803 cumulative IPC: 0.253188 (Simulation time: 0 hr 32 min 20 sec) 
select_counter is 1909
Heartbeat CPU 0 instructions: 62000003 cycles: 210475211 heartbeat IPC: 0.285077 cumulative IPC: 0.253734 (Simulation time: 0 hr 32 min 47 sec) 
select_counter is 1910
Heartbeat CPU 0 instructions: 63000001 cycles: 213985541 heartbeat IPC: 0.284873 cumulative IPC: 0.254258 (Simulation time: 0 hr 33 min 14 sec) 
select_counter is 1879
Heartbeat CPU 0 instructions: 64000000 cycles: 217515904 heartbeat IPC: 0.283257 cumulative IPC: 0.254741 (Simulation time: 0 hr 33 min 41 sec) 
select_counter is 1885
Heartbeat CPU 0 instructions: 65000000 cycles: 221087097 heartbeat IPC: 0.280018 cumulative IPC: 0.25516 (Simulation time: 0 hr 34 min 9 sec) 
select_counter is 1891
Heartbeat CPU 0 instructions: 66000000 cycles: 224692782 heartbeat IPC: 0.27734 cumulative IPC: 0.255525 (Simulation time: 0 hr 34 min 40 sec) 
select_counter is 1867
Heartbeat CPU 0 instructions: 67000001 cycles: 228456798 heartbeat IPC: 0.265674 cumulative IPC: 0.255696 (Simulation time: 0 hr 35 min 10 sec) 
select_counter is 1890
Heartbeat CPU 0 instructions: 68000000 cycles: 232239901 heartbeat IPC: 0.264333 cumulative IPC: 0.25584 (Simulation time: 0 hr 35 min 39 sec) 
select_counter is 1909
Heartbeat CPU 0 instructions: 69000003 cycles: 236020793 heartbeat IPC: 0.264489 cumulative IPC: 0.255982 (Simulation time: 0 hr 36 min 8 sec) 
select_counter is 1931
Heartbeat CPU 0 instructions: 70000000 cycles: 239844410 heartbeat IPC: 0.261532 cumulative IPC: 0.256073 (Simulation time: 0 hr 36 min 34 sec) 
select_counter is 1947
Heartbeat CPU 0 instructions: 71000002 cycles: 243461702 heartbeat IPC: 0.27645 cumulative IPC: 0.256383 (Simulation time: 0 hr 37 min 0 sec) 
select_counter is 1966
Heartbeat CPU 0 instructions: 72000000 cycles: 247056871 heartbeat IPC: 0.27815 cumulative IPC: 0.256707 (Simulation time: 0 hr 37 min 27 sec) 
select_counter is 1956
Heartbeat CPU 0 instructions: 73000003 cycles: 250647498 heartbeat IPC: 0.278504 cumulative IPC: 0.257026 (Simulation time: 0 hr 37 min 55 sec) 
select_counter is 1965
Heartbeat CPU 0 instructions: 74000000 cycles: 254264774 heartbeat IPC: 0.27645 cumulative IPC: 0.257308 (Simulation time: 0 hr 38 min 22 sec) 
select_counter is 1969
Heartbeat CPU 0 instructions: 75000000 cycles: 257882732 heartbeat IPC: 0.276399 cumulative IPC: 0.257582 (Simulation time: 0 hr 38 min 47 sec) 
select_counter is 1979
Heartbeat CPU 0 instructions: 76000000 cycles: 261514783 heartbeat IPC: 0.275327 cumulative IPC: 0.257834 (Simulation time: 0 hr 39 min 10 sec) 
select_counter is 1992
Heartbeat CPU 0 instructions: 77000000 cycles: 265119743 heartbeat IPC: 0.277396 cumulative IPC: 0.258106 (Simulation time: 0 hr 39 min 32 sec) 
select_counter is 2036
Heartbeat CPU 0 instructions: 78000003 cycles: 268671559 heartbeat IPC: 0.281547 cumulative IPC: 0.258422 (Simulation time: 0 hr 39 min 56 sec) 
select_counter is 2038
Heartbeat CPU 0 instructions: 79000000 cycles: 272249781 heartbeat IPC: 0.279468 cumulative IPC: 0.258704 (Simulation time: 0 hr 40 min 18 sec) 
select_counter is 2026
Heartbeat CPU 0 instructions: 80000000 cycles: 275797529 heartbeat IPC: 0.281869 cumulative IPC: 0.259008 (Simulation time: 0 hr 40 min 41 sec) 
select_counter is 2045
Heartbeat CPU 0 instructions: 81000001 cycles: 279331837 heartbeat IPC: 0.282941 cumulative IPC: 0.259317 (Simulation time: 0 hr 40 min 59 sec) 
select_counter is 2033
Heartbeat CPU 0 instructions: 82000000 cycles: 282869238 heartbeat IPC: 0.282693 cumulative IPC: 0.259616 (Simulation time: 0 hr 41 min 17 sec) 
select_counter is 2036
Heartbeat CPU 0 instructions: 83000003 cycles: 286426273 heartbeat IPC: 0.281134 cumulative IPC: 0.259888 (Simulation time: 0 hr 41 min 35 sec) 
select_counter is 2025
Heartbeat CPU 0 instructions: 84000000 cycles: 289965355 heartbeat IPC: 0.282558 cumulative IPC: 0.26017 (Simulation time: 0 hr 41 min 52 sec) 
select_counter is 2038
Heartbeat CPU 0 instructions: 85000000 cycles: 293499493 heartbeat IPC: 0.282954 cumulative IPC: 0.26045 (Simulation time: 0 hr 42 min 8 sec) 
select_counter is 2044
Heartbeat CPU 0 instructions: 86000001 cycles: 297044878 heartbeat IPC: 0.282057 cumulative IPC: 0.260713 (Simulation time: 0 hr 42 min 25 sec) 
select_counter is 2029
Heartbeat CPU 0 instructions: 87000001 cycles: 300597136 heartbeat IPC: 0.281511 cumulative IPC: 0.260963 (Simulation time: 0 hr 42 min 41 sec) 
select_counter is 2024
Heartbeat CPU 0 instructions: 88000000 cycles: 304138067 heartbeat IPC: 0.282411 cumulative IPC: 0.261217 (Simulation time: 0 hr 42 min 58 sec) 
select_counter is 2014
Heartbeat CPU 0 instructions: 89000003 cycles: 307677690 heartbeat IPC: 0.282517 cumulative IPC: 0.261467 (Simulation time: 0 hr 43 min 15 sec) 
select_counter is 2013
Heartbeat CPU 0 instructions: 90000000 cycles: 311217476 heartbeat IPC: 0.282502 cumulative IPC: 0.26171 (Simulation time: 0 hr 43 min 31 sec) 
select_counter is 1994
Heartbeat CPU 0 instructions: 91000000 cycles: 314745926 heartbeat IPC: 0.283411 cumulative IPC: 0.261958 (Simulation time: 0 hr 43 min 47 sec) 
select_counter is 2000
Heartbeat CPU 0 instructions: 92000000 cycles: 318257786 heartbeat IPC: 0.284749 cumulative IPC: 0.262214 (Simulation time: 0 hr 44 min 1 sec) 
select_counter is 1987
Heartbeat CPU 0 instructions: 93000001 cycles: 321774178 heartbeat IPC: 0.284383 cumulative IPC: 0.26246 (Simulation time: 0 hr 44 min 14 sec) 
select_counter is 1967
Heartbeat CPU 0 instructions: 94000003 cycles: 325279830 heartbeat IPC: 0.285254 cumulative IPC: 0.26271 (Simulation time: 0 hr 44 min 27 sec) 
select_counter is 1962
Heartbeat CPU 0 instructions: 95000002 cycles: 328792951 heartbeat IPC: 0.284647 cumulative IPC: 0.262949 (Simulation time: 0 hr 44 min 39 sec) 
select_counter is 1960
Heartbeat CPU 0 instructions: 96000000 cycles: 332288527 heartbeat IPC: 0.286075 cumulative IPC: 0.263196 (Simulation time: 0 hr 44 min 51 sec) 
select_counter is 1971
Heartbeat CPU 0 instructions: 97000000 cycles: 335780086 heartbeat IPC: 0.286405 cumulative IPC: 0.263442 (Simulation time: 0 hr 45 min 1 sec) 
select_counter is 1975
Heartbeat CPU 0 instructions: 98000000 cycles: 339265809 heartbeat IPC: 0.286885 cumulative IPC: 0.263686 (Simulation time: 0 hr 45 min 10 sec) 
select_counter is 1948
Heartbeat CPU 0 instructions: 99000000 cycles: 342770285 heartbeat IPC: 0.285349 cumulative IPC: 0.263912 (Simulation time: 0 hr 45 min 18 sec) 
select_counter is 1949
Heartbeat CPU 0 instructions: 100000000 cycles: 346308960 heartbeat IPC: 0.282592 cumulative IPC: 0.264105 (Simulation time: 0 hr 45 min 26 sec) 
select_counter is 1947
Heartbeat CPU 0 instructions: 101000003 cycles: 349822947 heartbeat IPC: 0.284578 cumulative IPC: 0.264314 (Simulation time: 0 hr 45 min 34 sec) 
select_counter is 1951
Heartbeat CPU 0 instructions: 102000000 cycles: 353877977 heartbeat IPC: 0.246607 cumulative IPC: 0.264108 (Simulation time: 0 hr 45 min 41 sec) 
select_counter is 1947
Heartbeat CPU 0 instructions: 103000002 cycles: 358218639 heartbeat IPC: 0.23038 cumulative IPC: 0.263693 (Simulation time: 0 hr 45 min 48 sec) 
select_counter is 1972
Heartbeat CPU 0 instructions: 104000000 cycles: 362326919 heartbeat IPC: 0.24341 cumulative IPC: 0.26346 (Simulation time: 0 hr 45 min 54 sec) 
select_counter is 1996
Heartbeat CPU 0 instructions: 105000000 cycles: 366226627 heartbeat IPC: 0.256429 cumulative IPC: 0.263384 (Simulation time: 0 hr 45 min 59 sec) 
select_counter is 2002
Heartbeat CPU 0 instructions: 106000002 cycles: 370117086 heartbeat IPC: 0.25704 cumulative IPC: 0.263316 (Simulation time: 0 hr 46 min 3 sec) 
select_counter is 2022
Heartbeat CPU 0 instructions: 107000001 cycles: 374050624 heartbeat IPC: 0.254224 cumulative IPC: 0.263219 (Simulation time: 0 hr 46 min 6 sec) 
select_counter is 2047
Heartbeat CPU 0 instructions: 108000000 cycles: 377862599 heartbeat IPC: 0.262331 cumulative IPC: 0.26321 (Simulation time: 0 hr 46 min 10 sec) 
select_counter is 2033
Heartbeat CPU 0 instructions: 109000000 cycles: 381589766 heartbeat IPC: 0.2683 cumulative IPC: 0.26326 (Simulation time: 0 hr 46 min 14 sec) 
select_counter is 2045
Heartbeat CPU 0 instructions: 110000002 cycles: 385292570 heartbeat IPC: 0.270066 cumulative IPC: 0.263327 (Simulation time: 0 hr 46 min 17 sec) 
select_counter is 2028
Finished CPU 0 instructions: 100000001 cycles: 379756514 cummulative IPC: 0.263327 (Simulation time: 0 hr 46 min 17 sec) 

ChampSim completed all CPUs

Region of Interest Statistics

CPU 0 cummulative IPC: 0.263327 instructions: 100000001 cycles: 379756514
LLC TOTAL     ACCESS:    2541195  HIT:     315123  MISS:    2226072
LLC LOAD      ACCESS:     647604  HIT:      60128  MISS:     587476
LLC RFO       ACCESS:     277998  HIT:      30818  MISS:     247180
LLC PREFETCH  ACCESS:    1132165  HIT:      71388  MISS:    1060777
LLC WRITEBACK ACCESS:     483428  HIT:     152789  MISS:     330639
Ship samples: 
4, 60, 73, 99, 143, 177, 210, 242, 265, 310, 326, 377, 398, 445, 465, 506, 541, 566, 581, 624, 657, 694, 731, 764, 798, 811, 846, 876, 925, 934, 967, 996, 1048, 1067, 1108, 1138, 1180, 1208, 1220, 1263, 1288, 1316, 1344, 1386, 1415, 1457, 1501, 1504, 1537, 1579, 1616, 1657, 1681, 1724, 1753, 1782, 1815, 1837, 1869, 1888, 1928, 1954, 1993, 2047, 
Lime duel samples: 
16, 63, 64, 110, 137, 183, 194, 250, 281, 309, 327, 379, 391, 440, 458, 510, 534, 567, 582, 633, 660, 673, 707, 745, 772, 818, 836, 869, 924, 937, 974, 993, 1029, 1082, 1117, 1147, 1157, 1192, 1233, 1276, 1302, 1332, 1357, 1377, 1417, 1464, 1480, 1526, 1559, 1598, 1629, 1648, 1688, 1706, 1742, 1779, 1805, 1827, 1880, 1911, 1925, 1960, 2014, 2042, 
Lime samples: 
16, 110, 194, 309, 391, 510, 582, 673, 772, 869, 974, 1082, 1157, 1276, 1357, 1464, 1559, 1648, 1742, 1827, 1925, 
Insertion Distribution: 
	LOAD 12377 0 0 0 0 0 4479 143859 
	RFO 2490 0 0 0 0 0 3373 113652 
	PREF 0 1 0 0 0 0 12399 344114 
	WRITEBACK 0 0 0 0 0 0 0 180371 
Total Prefetch Downgrades: 2595
