
*** ChampSim Multicore Out-of-Order Simulator ***

Warmup Instructions: 10000000
Simulation Instructions: 100000000
Configuration: 2
Number of CPUs: 1
LLC sets: 2048
LLC ways: 16
Off-chip DRAM Channels: 1 Width: 64-bit Data Rate: 1600 MT/s

CPU 0 runs /datasets/cs240c-wi22-a00-public/data/Assignment2-gz/GemsFDTD_712B.trace.gz
CPU 0 L1D next line prefetcher
CPU 0 L2C IP-based stride prefetcher
Heartbeat CPU 0 instructions: 1000003 cycles: 634341 heartbeat IPC: 1.57644 cumulative IPC: 1.57644 (Simulation time: 0 hr 0 min 29 sec) 
select_counter is 722
Heartbeat CPU 0 instructions: 2000000 cycles: 1268326 heartbeat IPC: 1.57732 cumulative IPC: 1.57688 (Simulation time: 0 hr 0 min 53 sec) 
select_counter is 466
Heartbeat CPU 0 instructions: 3000000 cycles: 1902374 heartbeat IPC: 1.57717 cumulative IPC: 1.57698 (Simulation time: 0 hr 1 min 18 sec) 
select_counter is 401
Heartbeat CPU 0 instructions: 4000000 cycles: 2536071 heartbeat IPC: 1.57804 cumulative IPC: 1.57724 (Simulation time: 0 hr 1 min 42 sec) 
select_counter is 356
Heartbeat CPU 0 instructions: 5000003 cycles: 3170221 heartbeat IPC: 1.57692 cumulative IPC: 1.57718 (Simulation time: 0 hr 2 min 7 sec) 
select_counter is 343
Heartbeat CPU 0 instructions: 6000002 cycles: 3804107 heartbeat IPC: 1.57757 cumulative IPC: 1.57724 (Simulation time: 0 hr 2 min 32 sec) 
select_counter is 332
Heartbeat CPU 0 instructions: 7000001 cycles: 4438245 heartbeat IPC: 1.57694 cumulative IPC: 1.5772 (Simulation time: 0 hr 2 min 56 sec) 
select_counter is 338
Heartbeat CPU 0 instructions: 8000000 cycles: 5072081 heartbeat IPC: 1.57769 cumulative IPC: 1.57726 (Simulation time: 0 hr 3 min 20 sec) 
select_counter is 304
Heartbeat CPU 0 instructions: 9000001 cycles: 5706195 heartbeat IPC: 1.57701 cumulative IPC: 1.57723 (Simulation time: 0 hr 3 min 44 sec) 
select_counter is 275
Heartbeat CPU 0 instructions: 10000002 cycles: 6339968 heartbeat IPC: 1.57785 cumulative IPC: 1.5773 (Simulation time: 0 hr 4 min 9 sec) 
select_counter is 260

Warmup complete CPU 0 instructions: 10000002 cycles: 6339968 (Simulation time: 0 hr 4 min 9 sec) 

Heartbeat CPU 0 instructions: 11000001 cycles: 7961992 heartbeat IPC: 0.616513 cumulative IPC: 0.616513 (Simulation time: 0 hr 4 min 37 sec) 
select_counter is 259
Heartbeat CPU 0 instructions: 12000000 cycles: 9591486 heartbeat IPC: 0.613687 cumulative IPC: 0.615097 (Simulation time: 0 hr 5 min 5 sec) 
select_counter is 246
Heartbeat CPU 0 instructions: 13000000 cycles: 11211880 heartbeat IPC: 0.617134 cumulative IPC: 0.615774 (Simulation time: 0 hr 5 min 32 sec) 
select_counter is 207
Heartbeat CPU 0 instructions: 14000002 cycles: 12809693 heartbeat IPC: 0.625857 cumulative IPC: 0.618264 (Simulation time: 0 hr 5 min 59 sec) 
select_counter is 164
Heartbeat CPU 0 instructions: 15000000 cycles: 14400262 heartbeat IPC: 0.628705 cumulative IPC: 0.620324 (Simulation time: 0 hr 6 min 27 sec) 
select_counter is 143
Heartbeat CPU 0 instructions: 16000000 cycles: 16023815 heartbeat IPC: 0.615933 cumulative IPC: 0.619588 (Simulation time: 0 hr 6 min 55 sec) 
select_counter is 147
Heartbeat CPU 0 instructions: 17000001 cycles: 17631789 heartbeat IPC: 0.621901 cumulative IPC: 0.619918 (Simulation time: 0 hr 7 min 21 sec) 
select_counter is 163
Heartbeat CPU 0 instructions: 18000001 cycles: 19262234 heartbeat IPC: 0.613329 cumulative IPC: 0.619086 (Simulation time: 0 hr 7 min 50 sec) 
select_counter is 178
Heartbeat CPU 0 instructions: 19000003 cycles: 20868261 heartbeat IPC: 0.622656 cumulative IPC: 0.619481 (Simulation time: 0 hr 8 min 17 sec) 
select_counter is 195
Heartbeat CPU 0 instructions: 20000000 cycles: 22466530 heartbeat IPC: 0.625675 cumulative IPC: 0.620095 (Simulation time: 0 hr 8 min 44 sec) 
select_counter is 184
Heartbeat CPU 0 instructions: 21000002 cycles: 24081325 heartbeat IPC: 0.619275 cumulative IPC: 0.62002 (Simulation time: 0 hr 9 min 11 sec) 
select_counter is 184
Heartbeat CPU 0 instructions: 22000001 cycles: 25708446 heartbeat IPC: 0.614582 cumulative IPC: 0.619563 (Simulation time: 0 hr 9 min 42 sec) 
select_counter is 154
Heartbeat CPU 0 instructions: 23000002 cycles: 27314502 heartbeat IPC: 0.622644 cumulative IPC: 0.619799 (Simulation time: 0 hr 10 min 11 sec) 
select_counter is 165
Heartbeat CPU 0 instructions: 24000000 cycles: 28957112 heartbeat IPC: 0.608786 cumulative IPC: 0.618999 (Simulation time: 0 hr 10 min 38 sec) 
select_counter is 167
Heartbeat CPU 0 instructions: 25000000 cycles: 30573465 heartbeat IPC: 0.618677 cumulative IPC: 0.618978 (Simulation time: 0 hr 11 min 6 sec) 
select_counter is 140
Heartbeat CPU 0 instructions: 26000002 cycles: 32183441 heartbeat IPC: 0.621128 cumulative IPC: 0.619112 (Simulation time: 0 hr 11 min 34 sec) 
select_counter is 147
Heartbeat CPU 0 instructions: 27000002 cycles: 33808131 heartbeat IPC: 0.615502 cumulative IPC: 0.618898 (Simulation time: 0 hr 12 min 3 sec) 
select_counter is 117
Heartbeat CPU 0 instructions: 28000000 cycles: 35411901 heartbeat IPC: 0.62353 cumulative IPC: 0.619154 (Simulation time: 0 hr 12 min 30 sec) 
select_counter is 97
Heartbeat CPU 0 instructions: 29000002 cycles: 37017151 heartbeat IPC: 0.622957 cumulative IPC: 0.619353 (Simulation time: 0 hr 12 min 58 sec) 
select_counter is 90
Heartbeat CPU 0 instructions: 30000002 cycles: 38618095 heartbeat IPC: 0.624631 cumulative IPC: 0.619615 (Simulation time: 0 hr 13 min 25 sec) 
select_counter is 100
Heartbeat CPU 0 instructions: 31000001 cycles: 40239143 heartbeat IPC: 0.616884 cumulative IPC: 0.619484 (Simulation time: 0 hr 13 min 53 sec) 
select_counter is 65
Heartbeat CPU 0 instructions: 32000000 cycles: 41865334 heartbeat IPC: 0.614933 cumulative IPC: 0.619276 (Simulation time: 0 hr 14 min 21 sec) 
select_counter is 30
Heartbeat CPU 0 instructions: 33000000 cycles: 43473012 heartbeat IPC: 0.622015 cumulative IPC: 0.619394 (Simulation time: 0 hr 14 min 49 sec) 
select_counter is 2045
Heartbeat CPU 0 instructions: 34000003 cycles: 45041498 heartbeat IPC: 0.637559 cumulative IPC: 0.620131 (Simulation time: 0 hr 15 min 19 sec) 
select_counter is 2025
Heartbeat CPU 0 instructions: 35000000 cycles: 46645678 heartbeat IPC: 0.62337 cumulative IPC: 0.620259 (Simulation time: 0 hr 15 min 48 sec) 
select_counter is 2011
Heartbeat CPU 0 instructions: 36000000 cycles: 48267685 heartbeat IPC: 0.61652 cumulative IPC: 0.620115 (Simulation time: 0 hr 16 min 17 sec) 
select_counter is 1999
Heartbeat CPU 0 instructions: 37000001 cycles: 49853051 heartbeat IPC: 0.63077 cumulative IPC: 0.620503 (Simulation time: 0 hr 16 min 46 sec) 
select_counter is 1973
Heartbeat CPU 0 instructions: 38000003 cycles: 51453235 heartbeat IPC: 0.624929 cumulative IPC: 0.62066 (Simulation time: 0 hr 17 min 15 sec) 
select_counter is 1963
Heartbeat CPU 0 instructions: 39000000 cycles: 53084478 heartbeat IPC: 0.613028 cumulative IPC: 0.620394 (Simulation time: 0 hr 17 min 43 sec) 
select_counter is 1960
Heartbeat CPU 0 instructions: 40000000 cycles: 54664978 heartbeat IPC: 0.632711 cumulative IPC: 0.620797 (Simulation time: 0 hr 18 min 12 sec) 
select_counter is 1928
Heartbeat CPU 0 instructions: 41000003 cycles: 56260562 heartbeat IPC: 0.626732 cumulative IPC: 0.620986 (Simulation time: 0 hr 18 min 41 sec) 
select_counter is 1933
Heartbeat CPU 0 instructions: 42000000 cycles: 57888264 heartbeat IPC: 0.614361 cumulative IPC: 0.620777 (Simulation time: 0 hr 19 min 9 sec) 
select_counter is 1932
Heartbeat CPU 0 instructions: 43000001 cycles: 59504769 heartbeat IPC: 0.618619 cumulative IPC: 0.620711 (Simulation time: 0 hr 19 min 37 sec) 
select_counter is 1902
Heartbeat CPU 0 instructions: 44000000 cycles: 61105051 heartbeat IPC: 0.624889 cumulative IPC: 0.620834 (Simulation time: 0 hr 20 min 5 sec) 
select_counter is 1919
Heartbeat CPU 0 instructions: 45000002 cycles: 62704335 heartbeat IPC: 0.625281 cumulative IPC: 0.62096 (Simulation time: 0 hr 20 min 33 sec) 
select_counter is 1924
Heartbeat CPU 0 instructions: 46000002 cycles: 64294880 heartbeat IPC: 0.628715 cumulative IPC: 0.621173 (Simulation time: 0 hr 21 min 0 sec) 
select_counter is 1900
Heartbeat CPU 0 instructions: 47000001 cycles: 65914861 heartbeat IPC: 0.617291 cumulative IPC: 0.621067 (Simulation time: 0 hr 21 min 29 sec) 
select_counter is 1871
Heartbeat CPU 0 instructions: 48000000 cycles: 67529657 heartbeat IPC: 0.619273 cumulative IPC: 0.62102 (Simulation time: 0 hr 21 min 59 sec) 
select_counter is 1843
Heartbeat CPU 0 instructions: 49000000 cycles: 69119932 heartbeat IPC: 0.628822 cumulative IPC: 0.621217 (Simulation time: 0 hr 22 min 27 sec) 
select_counter is 1800
Heartbeat CPU 0 instructions: 50000001 cycles: 70742489 heartbeat IPC: 0.616312 cumulative IPC: 0.621094 (Simulation time: 0 hr 22 min 57 sec) 
select_counter is 1743
Heartbeat CPU 0 instructions: 51000002 cycles: 72363337 heartbeat IPC: 0.616962 cumulative IPC: 0.620992 (Simulation time: 0 hr 23 min 25 sec) 
select_counter is 1725
Heartbeat CPU 0 instructions: 52000000 cycles: 73976555 heartbeat IPC: 0.619878 cumulative IPC: 0.620966 (Simulation time: 0 hr 23 min 54 sec) 
select_counter is 1700
Heartbeat CPU 0 instructions: 53000000 cycles: 75622468 heartbeat IPC: 0.607566 cumulative IPC: 0.620647 (Simulation time: 0 hr 24 min 23 sec) 
select_counter is 1690
Heartbeat CPU 0 instructions: 54000000 cycles: 77218432 heartbeat IPC: 0.626581 cumulative IPC: 0.620781 (Simulation time: 0 hr 24 min 49 sec) 
select_counter is 1689
Heartbeat CPU 0 instructions: 55000003 cycles: 78802033 heartbeat IPC: 0.631474 cumulative IPC: 0.621015 (Simulation time: 0 hr 25 min 16 sec) 
select_counter is 1678
Heartbeat CPU 0 instructions: 56000000 cycles: 80416919 heartbeat IPC: 0.619237 cumulative IPC: 0.620976 (Simulation time: 0 hr 25 min 44 sec) 
select_counter is 1667
Heartbeat CPU 0 instructions: 57000002 cycles: 82069680 heartbeat IPC: 0.605049 cumulative IPC: 0.620628 (Simulation time: 0 hr 26 min 12 sec) 
select_counter is 1651
Heartbeat CPU 0 instructions: 58000001 cycles: 83684763 heartbeat IPC: 0.619163 cumulative IPC: 0.620598 (Simulation time: 0 hr 26 min 40 sec) 
select_counter is 1636
Heartbeat CPU 0 instructions: 59000001 cycles: 85304434 heartbeat IPC: 0.617409 cumulative IPC: 0.620532 (Simulation time: 0 hr 27 min 8 sec) 
select_counter is 1680
Heartbeat CPU 0 instructions: 60000000 cycles: 86929501 heartbeat IPC: 0.615359 cumulative IPC: 0.620428 (Simulation time: 0 hr 27 min 35 sec) 
select_counter is 1690
Heartbeat CPU 0 instructions: 61000001 cycles: 88513759 heartbeat IPC: 0.631211 cumulative IPC: 0.620636 (Simulation time: 0 hr 28 min 3 sec) 
select_counter is 1685
Heartbeat CPU 0 instructions: 62000000 cycles: 90102072 heartbeat IPC: 0.629598 cumulative IPC: 0.620806 (Simulation time: 0 hr 28 min 31 sec) 
select_counter is 1665
Heartbeat CPU 0 instructions: 63000003 cycles: 91709770 heartbeat IPC: 0.622009 cumulative IPC: 0.620828 (Simulation time: 0 hr 28 min 58 sec) 
select_counter is 1655
Heartbeat CPU 0 instructions: 64000000 cycles: 93328895 heartbeat IPC: 0.617616 cumulative IPC: 0.620769 (Simulation time: 0 hr 29 min 25 sec) 
select_counter is 1642
Heartbeat CPU 0 instructions: 65000003 cycles: 94957875 heartbeat IPC: 0.613883 cumulative IPC: 0.620642 (Simulation time: 0 hr 29 min 53 sec) 
select_counter is 1623
Heartbeat CPU 0 instructions: 66000000 cycles: 96551775 heartbeat IPC: 0.62739 cumulative IPC: 0.620761 (Simulation time: 0 hr 30 min 20 sec) 
select_counter is 1608
Heartbeat CPU 0 instructions: 67000001 cycles: 98151052 heartbeat IPC: 0.625283 cumulative IPC: 0.62084 (Simulation time: 0 hr 30 min 48 sec) 
select_counter is 1642
Heartbeat CPU 0 instructions: 68000000 cycles: 99745014 heartbeat IPC: 0.627367 cumulative IPC: 0.620951 (Simulation time: 0 hr 31 min 16 sec) 
select_counter is 1587
Heartbeat CPU 0 instructions: 69000001 cycles: 101324907 heartbeat IPC: 0.632955 cumulative IPC: 0.621151 (Simulation time: 0 hr 31 min 45 sec) 
select_counter is 1536
Heartbeat CPU 0 instructions: 70000002 cycles: 102957009 heartbeat IPC: 0.612707 cumulative IPC: 0.621008 (Simulation time: 0 hr 32 min 12 sec) 
select_counter is 1519
Heartbeat CPU 0 instructions: 71000002 cycles: 104611215 heartbeat IPC: 0.60452 cumulative IPC: 0.620731 (Simulation time: 0 hr 32 min 42 sec) 
select_counter is 1480
Heartbeat CPU 0 instructions: 72000000 cycles: 106362998 heartbeat IPC: 0.570846 cumulative IPC: 0.619857 (Simulation time: 0 hr 33 min 14 sec) 
select_counter is 1367
Heartbeat CPU 0 instructions: 73000000 cycles: 108088394 heartbeat IPC: 0.579577 cumulative IPC: 0.619174 (Simulation time: 0 hr 33 min 45 sec) 
select_counter is 1356
Heartbeat CPU 0 instructions: 74000001 cycles: 109840542 heartbeat IPC: 0.570729 cumulative IPC: 0.618354 (Simulation time: 0 hr 34 min 19 sec) 
select_counter is 1408
Heartbeat CPU 0 instructions: 75000003 cycles: 111576929 heartbeat IPC: 0.57591 cumulative IPC: 0.617654 (Simulation time: 0 hr 34 min 50 sec) 
select_counter is 1417
Heartbeat CPU 0 instructions: 76000000 cycles: 113307263 heartbeat IPC: 0.577921 cumulative IPC: 0.617011 (Simulation time: 0 hr 35 min 19 sec) 
select_counter is 1459
Heartbeat CPU 0 instructions: 77000000 cycles: 115053000 heartbeat IPC: 0.572824 cumulative IPC: 0.616301 (Simulation time: 0 hr 35 min 47 sec) 
select_counter is 1479
Heartbeat CPU 0 instructions: 78000001 cycles: 116788276 heartbeat IPC: 0.576278 cumulative IPC: 0.615673 (Simulation time: 0 hr 36 min 14 sec) 
select_counter is 1408
Heartbeat CPU 0 instructions: 79000003 cycles: 118535355 heartbeat IPC: 0.572385 cumulative IPC: 0.614999 (Simulation time: 0 hr 36 min 44 sec) 
select_counter is 1488
Heartbeat CPU 0 instructions: 80000000 cycles: 120286256 heartbeat IPC: 0.571133 cumulative IPC: 0.614325 (Simulation time: 0 hr 37 min 10 sec) 
select_counter is 1529
Heartbeat CPU 0 instructions: 81000001 cycles: 122035085 heartbeat IPC: 0.571812 cumulative IPC: 0.613682 (Simulation time: 0 hr 37 min 36 sec) 
select_counter is 1649
Heartbeat CPU 0 instructions: 82000000 cycles: 123781656 heartbeat IPC: 0.57255 cumulative IPC: 0.61307 (Simulation time: 0 hr 38 min 3 sec) 
select_counter is 1657
Heartbeat CPU 0 instructions: 83000001 cycles: 125518443 heartbeat IPC: 0.575776 cumulative IPC: 0.612527 (Simulation time: 0 hr 38 min 27 sec) 
select_counter is 1648
Heartbeat CPU 0 instructions: 84000000 cycles: 127267551 heartbeat IPC: 0.571719 cumulative IPC: 0.611936 (Simulation time: 0 hr 38 min 54 sec) 
select_counter is 1649
Heartbeat CPU 0 instructions: 85000000 cycles: 129003719 heartbeat IPC: 0.575981 cumulative IPC: 0.611428 (Simulation time: 0 hr 39 min 19 sec) 
select_counter is 1735
Heartbeat CPU 0 instructions: 86000000 cycles: 130737539 heartbeat IPC: 0.576761 cumulative IPC: 0.610944 (Simulation time: 0 hr 39 min 44 sec) 
select_counter is 1810
Heartbeat CPU 0 instructions: 87000001 cycles: 132482987 heartbeat IPC: 0.572919 cumulative IPC: 0.610418 (Simulation time: 0 hr 40 min 7 sec) 
select_counter is 1822
Heartbeat CPU 0 instructions: 88000000 cycles: 134223620 heartbeat IPC: 0.574503 cumulative IPC: 0.609929 (Simulation time: 0 hr 40 min 29 sec) 
select_counter is 1754
Heartbeat CPU 0 instructions: 89000003 cycles: 135975313 heartbeat IPC: 0.570878 cumulative IPC: 0.609402 (Simulation time: 0 hr 40 min 49 sec) 
select_counter is 1889
Heartbeat CPU 0 instructions: 90000000 cycles: 137722291 heartbeat IPC: 0.572415 cumulative IPC: 0.60891 (Simulation time: 0 hr 41 min 7 sec) 
select_counter is 1875
Heartbeat CPU 0 instructions: 91000001 cycles: 139460529 heartbeat IPC: 0.575296 cumulative IPC: 0.608471 (Simulation time: 0 hr 41 min 25 sec) 
select_counter is 1908
Heartbeat CPU 0 instructions: 92000000 cycles: 141204689 heartbeat IPC: 0.573341 cumulative IPC: 0.608017 (Simulation time: 0 hr 41 min 43 sec) 
select_counter is 1903
Heartbeat CPU 0 instructions: 93000003 cycles: 142946310 heartbeat IPC: 0.574179 cumulative IPC: 0.607585 (Simulation time: 0 hr 42 min 2 sec) 
select_counter is 2042
Heartbeat CPU 0 instructions: 94000002 cycles: 144677829 heartbeat IPC: 0.577527 cumulative IPC: 0.607209 (Simulation time: 0 hr 42 min 20 sec) 
select_counter is 2032
Heartbeat CPU 0 instructions: 95000001 cycles: 146426531 heartbeat IPC: 0.571852 cumulative IPC: 0.606768 (Simulation time: 0 hr 42 min 38 sec) 
select_counter is 2036
Heartbeat CPU 0 instructions: 96000000 cycles: 148163349 heartbeat IPC: 0.575765 cumulative IPC: 0.606388 (Simulation time: 0 hr 42 min 56 sec) 
select_counter is 2043
Heartbeat CPU 0 instructions: 97000003 cycles: 149908190 heartbeat IPC: 0.57312 cumulative IPC: 0.605984 (Simulation time: 0 hr 43 min 13 sec) 
select_counter is 2032
Heartbeat CPU 0 instructions: 98000000 cycles: 151651960 heartbeat IPC: 0.573468 cumulative IPC: 0.605594 (Simulation time: 0 hr 43 min 30 sec) 
select_counter is 1982
Heartbeat CPU 0 instructions: 99000001 cycles: 153401231 heartbeat IPC: 0.571667 cumulative IPC: 0.60519 (Simulation time: 0 hr 43 min 46 sec) 
select_counter is 1977
Heartbeat CPU 0 instructions: 100000000 cycles: 155149358 heartbeat IPC: 0.57204 cumulative IPC: 0.604801 (Simulation time: 0 hr 44 min 1 sec) 
select_counter is 1985
Heartbeat CPU 0 instructions: 101000001 cycles: 156886147 heartbeat IPC: 0.575776 cumulative IPC: 0.604466 (Simulation time: 0 hr 44 min 14 sec) 
select_counter is 1970
Heartbeat CPU 0 instructions: 102000002 cycles: 158629601 heartbeat IPC: 0.573575 cumulative IPC: 0.604112 (Simulation time: 0 hr 44 min 27 sec) 
select_counter is 1879
Heartbeat CPU 0 instructions: 103000000 cycles: 160372481 heartbeat IPC: 0.573762 cumulative IPC: 0.603769 (Simulation time: 0 hr 44 min 40 sec) 
select_counter is 1857
Heartbeat CPU 0 instructions: 104000000 cycles: 162121312 heartbeat IPC: 0.571811 cumulative IPC: 0.60341 (Simulation time: 0 hr 44 min 52 sec) 
select_counter is 1777
Heartbeat CPU 0 instructions: 105000000 cycles: 163860975 heartbeat IPC: 0.574824 cumulative IPC: 0.603094 (Simulation time: 0 hr 45 min 2 sec) 
select_counter is 1798
Heartbeat CPU 0 instructions: 106000002 cycles: 165587651 heartbeat IPC: 0.579149 cumulative IPC: 0.602835 (Simulation time: 0 hr 45 min 11 sec) 
select_counter is 1740
Heartbeat CPU 0 instructions: 107000000 cycles: 167340502 heartbeat IPC: 0.570498 cumulative IPC: 0.602482 (Simulation time: 0 hr 45 min 20 sec) 
select_counter is 1674
Heartbeat CPU 0 instructions: 108000000 cycles: 169078778 heartbeat IPC: 0.575283 cumulative IPC: 0.602192 (Simulation time: 0 hr 45 min 28 sec) 
select_counter is 1572
Heartbeat CPU 0 instructions: 109000003 cycles: 170827926 heartbeat IPC: 0.571709 cumulative IPC: 0.601868 (Simulation time: 0 hr 45 min 36 sec) 
select_counter is 1576
Heartbeat CPU 0 instructions: 110000000 cycles: 172571650 heartbeat IPC: 0.573484 cumulative IPC: 0.60157 (Simulation time: 0 hr 45 min 44 sec) 
select_counter is 1547
Finished CPU 0 instructions: 100000000 cycles: 166231693 cummulative IPC: 0.60157 (Simulation time: 0 hr 45 min 44 sec) 

ChampSim completed all CPUs

Region of Interest Statistics

CPU 0 cummulative IPC: 0.60157 instructions: 100000000 cycles: 166231693
LLC TOTAL     ACCESS:    5145117  HIT:     257788  MISS:    4887329
LLC LOAD      ACCESS:     521802  HIT:     111271  MISS:     410531
LLC RFO       ACCESS:         17  HIT:          0  MISS:         17
LLC PREFETCH  ACCESS:    3245995  HIT:      14377  MISS:    3231618
LLC WRITEBACK ACCESS:    1377303  HIT:     132140  MISS:    1245163
Ship samples: 
7, 56, 82, 125, 142, 187, 193, 254, 280, 305, 324, 361, 400, 442, 473, 510, 543, 555, 594, 615, 663, 680, 709, 764, 774, 824, 851, 869, 913, 955, 966, 995, 1038, 1086, 1098, 1134, 1159, 1209, 1244, 1257, 1283, 1324, 1348, 1402, 1425, 1440, 1486, 1533, 1554, 1598, 1600, 1661, 1666, 1716, 1740, 1760, 1823, 1830, 1886, 1913, 1941, 1958, 2013, 2016, 
Lime duel samples: 
12, 63, 86, 121, 144, 186, 219, 226, 259, 288, 347, 358, 410, 431, 471, 487, 536, 565, 600, 635, 653, 674, 728, 742, 797, 813, 842, 866, 899, 959, 971, 1017, 1029, 1070, 1089, 1125, 1153, 1206, 1228, 1269, 1282, 1314, 1366, 1393, 1429, 1461, 1495, 1508, 1565, 1595, 1628, 1644, 1671, 1719, 1758, 1789, 1807, 1836, 1859, 1888, 1935, 1977, 1987, 2019, 
Lime samples: 
12, 121, 219, 288, 410, 487, 600, 674, 797, 866, 971, 1070, 1153, 1269, 1366, 1461, 1565, 1644, 1758, 1836, 1935, 
Insertion Distribution: 
	LOAD 17393 0 0 0 0 0 8360 37115 
	RFO 0 0 0 0 0 0 0 0 
	PREF 0 2373 0 0 0 0 8720 1191758 
	WRITEBACK 0 0 0 0 0 0 0 438952 
Total Prefetch Downgrades: 1206
