
*** ChampSim Multicore Out-of-Order Simulator ***

Warmup Instructions: 10000000
Simulation Instructions: 100000000
Configuration: 2
Number of CPUs: 1
LLC sets: 2048
LLC ways: 16
Off-chip DRAM Channels: 1 Width: 64-bit Data Rate: 1600 MT/s

CPU 0 runs /datasets/cs240c-wi22-a00-public/data/Assignment2-gz/mcf_158B.trace.gz
CPU 0 L1D next line prefetcher
CPU 0 L2C IP-based stride prefetcher
Heartbeat CPU 0 instructions: 1000002 cycles: 512328 heartbeat IPC: 1.95188 cumulative IPC: 1.95188 (Simulation time: 0 hr 0 min 34 sec) 
select_counter is 1871
Heartbeat CPU 0 instructions: 2000002 cycles: 1023313 heartbeat IPC: 1.957 cumulative IPC: 1.95444 (Simulation time: 0 hr 1 min 2 sec) 
select_counter is 1324
Heartbeat CPU 0 instructions: 3000000 cycles: 1535549 heartbeat IPC: 1.95222 cumulative IPC: 1.9537 (Simulation time: 0 hr 1 min 31 sec) 
select_counter is 764
Heartbeat CPU 0 instructions: 4000000 cycles: 2046325 heartbeat IPC: 1.95781 cumulative IPC: 1.95472 (Simulation time: 0 hr 2 min 1 sec) 
select_counter is 118
Heartbeat CPU 0 instructions: 5000002 cycles: 2554119 heartbeat IPC: 1.96931 cumulative IPC: 1.95762 (Simulation time: 0 hr 2 min 30 sec) 
select_counter is 1486
Heartbeat CPU 0 instructions: 6000001 cycles: 3066734 heartbeat IPC: 1.95078 cumulative IPC: 1.95648 (Simulation time: 0 hr 2 min 59 sec) 
select_counter is 777
Heartbeat CPU 0 instructions: 7000001 cycles: 3575695 heartbeat IPC: 1.96479 cumulative IPC: 1.95766 (Simulation time: 0 hr 3 min 28 sec) 
select_counter is 1872
Heartbeat CPU 0 instructions: 8000000 cycles: 4086263 heartbeat IPC: 1.9586 cumulative IPC: 1.95778 (Simulation time: 0 hr 3 min 59 sec) 
select_counter is 903
Heartbeat CPU 0 instructions: 9000000 cycles: 4604509 heartbeat IPC: 1.92959 cumulative IPC: 1.95461 (Simulation time: 0 hr 4 min 28 sec) 
select_counter is 421
Heartbeat CPU 0 instructions: 10000001 cycles: 5136494 heartbeat IPC: 1.87975 cumulative IPC: 1.94685 (Simulation time: 0 hr 4 min 55 sec) 
select_counter is 56

Warmup complete CPU 0 instructions: 10000001 cycles: 5136494 (Simulation time: 0 hr 4 min 55 sec) 

Heartbeat CPU 0 instructions: 11000001 cycles: 14949515 heartbeat IPC: 0.101905 cumulative IPC: 0.101905 (Simulation time: 0 hr 5 min 36 sec) 
select_counter is 1314
Heartbeat CPU 0 instructions: 12000000 cycles: 24040707 heartbeat IPC: 0.109996 cumulative IPC: 0.105796 (Simulation time: 0 hr 6 min 16 sec) 
select_counter is 995
Heartbeat CPU 0 instructions: 13000001 cycles: 33110498 heartbeat IPC: 0.110256 cumulative IPC: 0.107242 (Simulation time: 0 hr 6 min 54 sec) 
select_counter is 505
Heartbeat CPU 0 instructions: 14000001 cycles: 40753924 heartbeat IPC: 0.130831 cumulative IPC: 0.112305 (Simulation time: 0 hr 7 min 30 sec) 
select_counter is 3
Heartbeat CPU 0 instructions: 15000000 cycles: 49908450 heartbeat IPC: 0.109235 cumulative IPC: 0.111677 (Simulation time: 0 hr 8 min 8 sec) 
select_counter is 1637
Heartbeat CPU 0 instructions: 16000000 cycles: 65764026 heartbeat IPC: 0.0630693 cumulative IPC: 0.0989649 (Simulation time: 0 hr 8 min 59 sec) 
select_counter is 1281
Heartbeat CPU 0 instructions: 17000001 cycles: 77713765 heartbeat IPC: 0.0836839 cumulative IPC: 0.0964489 (Simulation time: 0 hr 9 min 42 sec) 
select_counter is 729
Heartbeat CPU 0 instructions: 18000000 cycles: 86410962 heartbeat IPC: 0.114979 cumulative IPC: 0.0984319 (Simulation time: 0 hr 10 min 21 sec) 
select_counter is 105
Heartbeat CPU 0 instructions: 19000001 cycles: 96440887 heartbeat IPC: 0.0997017 cumulative IPC: 0.0985714 (Simulation time: 0 hr 11 min 1 sec) 
select_counter is 1638
Heartbeat CPU 0 instructions: 20000000 cycles: 105831756 heartbeat IPC: 0.106486 cumulative IPC: 0.0993095 (Simulation time: 0 hr 11 min 39 sec) 
select_counter is 1316
Heartbeat CPU 0 instructions: 21000000 cycles: 115209739 heartbeat IPC: 0.106633 cumulative IPC: 0.0999334 (Simulation time: 0 hr 12 min 19 sec) 
select_counter is 887
Heartbeat CPU 0 instructions: 22000002 cycles: 124427896 heartbeat IPC: 0.108482 cumulative IPC: 0.100594 (Simulation time: 0 hr 13 min 0 sec) 
select_counter is 451
Heartbeat CPU 0 instructions: 23000002 cycles: 134734951 heartbeat IPC: 0.0970209 cumulative IPC: 0.10031 (Simulation time: 0 hr 13 min 42 sec) 
select_counter is 2043
Heartbeat CPU 0 instructions: 24000000 cycles: 151047487 heartbeat IPC: 0.0613024 cumulative IPC: 0.0959489 (Simulation time: 0 hr 14 min 36 sec) 
select_counter is 1137
Heartbeat CPU 0 instructions: 25000000 cycles: 160527680 heartbeat IPC: 0.105483 cumulative IPC: 0.0965306 (Simulation time: 0 hr 15 min 15 sec) 
select_counter is 430
Heartbeat CPU 0 instructions: 26000000 cycles: 167674405 heartbeat IPC: 0.139924 cumulative IPC: 0.0984386 (Simulation time: 0 hr 15 min 51 sec) 
select_counter is 1866
Heartbeat CPU 0 instructions: 27000002 cycles: 175623629 heartbeat IPC: 0.125799 cumulative IPC: 0.0997143 (Simulation time: 0 hr 16 min 28 sec) 
select_counter is 1159
Heartbeat CPU 0 instructions: 28000000 cycles: 190668700 heartbeat IPC: 0.0664668 cumulative IPC: 0.0970182 (Simulation time: 0 hr 17 min 22 sec) 
select_counter is 1302
Heartbeat CPU 0 instructions: 29000003 cycles: 200446248 heartbeat IPC: 0.102275 cumulative IPC: 0.0972814 (Simulation time: 0 hr 18 min 17 sec) 
select_counter is 765
Heartbeat CPU 0 instructions: 30000003 cycles: 207209352 heartbeat IPC: 0.147861 cumulative IPC: 0.0989742 (Simulation time: 0 hr 18 min 56 sec) 
select_counter is 244
Heartbeat CPU 0 instructions: 31000003 cycles: 215372843 heartbeat IPC: 0.122497 cumulative IPC: 0.0998876 (Simulation time: 0 hr 19 min 33 sec) 
select_counter is 1907
Heartbeat CPU 0 instructions: 32000000 cycles: 230374846 heartbeat IPC: 0.0666576 cumulative IPC: 0.0976743 (Simulation time: 0 hr 20 min 25 sec) 
select_counter is 1947
Heartbeat CPU 0 instructions: 33000000 cycles: 238391417 heartbeat IPC: 0.124742 cumulative IPC: 0.0986046 (Simulation time: 0 hr 21 min 7 sec) 
select_counter is 1437
Heartbeat CPU 0 instructions: 34000000 cycles: 246459817 heartbeat IPC: 0.12394 cumulative IPC: 0.0994516 (Simulation time: 0 hr 21 min 47 sec) 
select_counter is 1027
Heartbeat CPU 0 instructions: 35000001 cycles: 255007804 heartbeat IPC: 0.116987 cumulative IPC: 0.100051 (Simulation time: 0 hr 22 min 25 sec) 
select_counter is 426
Heartbeat CPU 0 instructions: 36000000 cycles: 270809770 heartbeat IPC: 0.0632832 cumulative IPC: 0.0978646 (Simulation time: 0 hr 23 min 15 sec) 
select_counter is 504
Heartbeat CPU 0 instructions: 37000001 cycles: 278615798 heartbeat IPC: 0.128106 cumulative IPC: 0.0987278 (Simulation time: 0 hr 23 min 51 sec) 
select_counter is 53
Heartbeat CPU 0 instructions: 38000000 cycles: 287342422 heartbeat IPC: 0.114592 cumulative IPC: 0.0992183 (Simulation time: 0 hr 24 min 27 sec) 
select_counter is 1573
Heartbeat CPU 0 instructions: 39000000 cycles: 294833040 heartbeat IPC: 0.1335 cumulative IPC: 0.100105 (Simulation time: 0 hr 25 min 4 sec) 
select_counter is 1179
Heartbeat CPU 0 instructions: 40000000 cycles: 309327625 heartbeat IPC: 0.0689913 cumulative IPC: 0.0986222 (Simulation time: 0 hr 25 min 54 sec) 
select_counter is 1150
Heartbeat CPU 0 instructions: 41000003 cycles: 318897398 heartbeat IPC: 0.104496 cumulative IPC: 0.0988014 (Simulation time: 0 hr 26 min 33 sec) 
select_counter is 594
Heartbeat CPU 0 instructions: 42000000 cycles: 325525537 heartbeat IPC: 0.150871 cumulative IPC: 0.0998786 (Simulation time: 0 hr 27 min 8 sec) 
select_counter is 25
Heartbeat CPU 0 instructions: 43000001 cycles: 336655165 heartbeat IPC: 0.0898504 cumulative IPC: 0.0995419 (Simulation time: 0 hr 27 min 49 sec) 
select_counter is 1695
Heartbeat CPU 0 instructions: 44000000 cycles: 348959267 heartbeat IPC: 0.0812736 cumulative IPC: 0.0988882 (Simulation time: 0 hr 28 min 35 sec) 
select_counter is 1710
Heartbeat CPU 0 instructions: 45000000 cycles: 355617262 heartbeat IPC: 0.150195 cumulative IPC: 0.0998628 (Simulation time: 0 hr 29 min 7 sec) 
select_counter is 1140
Heartbeat CPU 0 instructions: 46000002 cycles: 365984241 heartbeat IPC: 0.0964603 cumulative IPC: 0.0997651 (Simulation time: 0 hr 29 min 49 sec) 
select_counter is 744
Heartbeat CPU 0 instructions: 47000002 cycles: 378424136 heartbeat IPC: 0.0803865 cumulative IPC: 0.0991193 (Simulation time: 0 hr 30 min 34 sec) 
select_counter is 761
Heartbeat CPU 0 instructions: 48000000 cycles: 384743413 heartbeat IPC: 0.158246 cumulative IPC: 0.100104 (Simulation time: 0 hr 31 min 5 sec) 
select_counter is 201
Heartbeat CPU 0 instructions: 49000003 cycles: 394804630 heartbeat IPC: 0.0993919 cumulative IPC: 0.100085 (Simulation time: 0 hr 31 min 42 sec) 
select_counter is 1840
Heartbeat CPU 0 instructions: 50000000 cycles: 407651761 heartbeat IPC: 0.0778382 cumulative IPC: 0.0993751 (Simulation time: 0 hr 32 min 26 sec) 
select_counter is 1956
Heartbeat CPU 0 instructions: 51000000 cycles: 414335880 heartbeat IPC: 0.149608 cumulative IPC: 0.100196 (Simulation time: 0 hr 32 min 59 sec) 
select_counter is 1394
Heartbeat CPU 0 instructions: 52000000 cycles: 423860032 heartbeat IPC: 0.104996 cumulative IPC: 0.100305 (Simulation time: 0 hr 33 min 37 sec) 
select_counter is 1088
Heartbeat CPU 0 instructions: 53000000 cycles: 437234043 heartbeat IPC: 0.0747719 cumulative IPC: 0.0995146 (Simulation time: 0 hr 34 min 23 sec) 
select_counter is 1195
Heartbeat CPU 0 instructions: 54000000 cycles: 444003977 heartbeat IPC: 0.147712 cumulative IPC: 0.100258 (Simulation time: 0 hr 34 min 55 sec) 
select_counter is 673
Heartbeat CPU 0 instructions: 55000000 cycles: 451759631 heartbeat IPC: 0.128938 cumulative IPC: 0.100756 (Simulation time: 0 hr 35 min 30 sec) 
select_counter is 237
Heartbeat CPU 0 instructions: 56000000 cycles: 466725208 heartbeat IPC: 0.06682 cumulative IPC: 0.0996558 (Simulation time: 0 hr 36 min 16 sec) 
select_counter is 370
Heartbeat CPU 0 instructions: 57000001 cycles: 472775534 heartbeat IPC: 0.165281 cumulative IPC: 0.100505 (Simulation time: 0 hr 36 min 44 sec) 
select_counter is 1908
Heartbeat CPU 0 instructions: 58000001 cycles: 479626648 heartbeat IPC: 0.145962 cumulative IPC: 0.101161 (Simulation time: 0 hr 37 min 14 sec) 
select_counter is 1372
Heartbeat CPU 0 instructions: 59000000 cycles: 495392321 heartbeat IPC: 0.0634289 cumulative IPC: 0.0999478 (Simulation time: 0 hr 37 min 57 sec) 
select_counter is 1558
Heartbeat CPU 0 instructions: 60000000 cycles: 502503309 heartbeat IPC: 0.140627 cumulative IPC: 0.100529 (Simulation time: 0 hr 38 min 25 sec) 
select_counter is 1058
Heartbeat CPU 0 instructions: 61000000 cycles: 509803861 heartbeat IPC: 0.136976 cumulative IPC: 0.101057 (Simulation time: 0 hr 38 min 53 sec) 
select_counter is 774
Heartbeat CPU 0 instructions: 62000001 cycles: 522328126 heartbeat IPC: 0.0798451 cumulative IPC: 0.100543 (Simulation time: 0 hr 39 min 28 sec) 
select_counter is 594
Heartbeat CPU 0 instructions: 63000001 cycles: 532549716 heartbeat IPC: 0.0978321 cumulative IPC: 0.10049 (Simulation time: 0 hr 39 min 59 sec) 
select_counter is 280
Heartbeat CPU 0 instructions: 64000000 cycles: 538649142 heartbeat IPC: 0.16395 cumulative IPC: 0.101216 (Simulation time: 0 hr 40 min 24 sec) 
select_counter is 1896
Heartbeat CPU 0 instructions: 65000000 cycles: 546503083 heartbeat IPC: 0.127325 cumulative IPC: 0.101595 (Simulation time: 0 hr 40 min 47 sec) 
select_counter is 1606
Heartbeat CPU 0 instructions: 66000000 cycles: 561447362 heartbeat IPC: 0.0669152 cumulative IPC: 0.100663 (Simulation time: 0 hr 41 min 17 sec) 
select_counter is 1681
Heartbeat CPU 0 instructions: 67000002 cycles: 568059779 heartbeat IPC: 0.151231 cumulative IPC: 0.101257 (Simulation time: 0 hr 41 min 37 sec) 
select_counter is 1282
Heartbeat CPU 0 instructions: 68000000 cycles: 574608362 heartbeat IPC: 0.152704 cumulative IPC: 0.101849 (Simulation time: 0 hr 41 min 57 sec) 
select_counter is 826
Heartbeat CPU 0 instructions: 69000000 cycles: 587784878 heartbeat IPC: 0.0758926 cumulative IPC: 0.101262 (Simulation time: 0 hr 42 min 24 sec) 
select_counter is 648
Heartbeat CPU 0 instructions: 70000000 cycles: 597020873 heartbeat IPC: 0.108272 cumulative IPC: 0.101371 (Simulation time: 0 hr 42 min 47 sec) 
select_counter is 457
Heartbeat CPU 0 instructions: 71000002 cycles: 602811018 heartbeat IPC: 0.172708 cumulative IPC: 0.102062 (Simulation time: 0 hr 43 min 7 sec) 
select_counter is 1985
Heartbeat CPU 0 instructions: 72000000 cycles: 611214651 heartbeat IPC: 0.118996 cumulative IPC: 0.102297 (Simulation time: 0 hr 43 min 29 sec) 
select_counter is 1472
Heartbeat CPU 0 instructions: 73000000 cycles: 625693605 heartbeat IPC: 0.0690658 cumulative IPC: 0.101522 (Simulation time: 0 hr 43 min 57 sec) 
select_counter is 1687
Heartbeat CPU 0 instructions: 74000000 cycles: 632490680 heartbeat IPC: 0.147122 cumulative IPC: 0.102016 (Simulation time: 0 hr 44 min 13 sec) 
select_counter is 1190
Heartbeat CPU 0 instructions: 75000001 cycles: 639360545 heartbeat IPC: 0.145563 cumulative IPC: 0.102487 (Simulation time: 0 hr 44 min 28 sec) 
select_counter is 538
Heartbeat CPU 0 instructions: 76000000 cycles: 651486989 heartbeat IPC: 0.0824643 cumulative IPC: 0.102112 (Simulation time: 0 hr 44 min 47 sec) 
select_counter is 566
Heartbeat CPU 0 instructions: 77000000 cycles: 662027939 heartbeat IPC: 0.0948681 cumulative IPC: 0.101996 (Simulation time: 0 hr 45 min 1 sec) 
select_counter is 305
Heartbeat CPU 0 instructions: 78000000 cycles: 669184558 heartbeat IPC: 0.139731 cumulative IPC: 0.102402 (Simulation time: 0 hr 45 min 12 sec) 
select_counter is 1750
Heartbeat CPU 0 instructions: 79000001 cycles: 676981868 heartbeat IPC: 0.128249 cumulative IPC: 0.102702 (Simulation time: 0 hr 45 min 23 sec) 
select_counter is 1212
Heartbeat CPU 0 instructions: 80000000 cycles: 692324006 heartbeat IPC: 0.0651799 cumulative IPC: 0.101864 (Simulation time: 0 hr 45 min 37 sec) 
select_counter is 1456
Heartbeat CPU 0 instructions: 81000001 cycles: 700007740 heartbeat IPC: 0.130145 cumulative IPC: 0.102177 (Simulation time: 0 hr 45 min 46 sec) 
select_counter is 948
Heartbeat CPU 0 instructions: 82000001 cycles: 707181364 heartbeat IPC: 0.1394 cumulative IPC: 0.102558 (Simulation time: 0 hr 45 min 53 sec) 
select_counter is 460
Heartbeat CPU 0 instructions: 83000001 cycles: 719803284 heartbeat IPC: 0.0792272 cumulative IPC: 0.102146 (Simulation time: 0 hr 46 min 1 sec) 
select_counter is 418
Heartbeat CPU 0 instructions: 84000000 cycles: 730682479 heartbeat IPC: 0.0919185 cumulative IPC: 0.101992 (Simulation time: 0 hr 46 min 7 sec) 
select_counter is 297
Heartbeat CPU 0 instructions: 85000000 cycles: 737152829 heartbeat IPC: 0.154551 cumulative IPC: 0.102457 (Simulation time: 0 hr 46 min 11 sec) 
select_counter is 1821
Heartbeat CPU 0 instructions: 86000000 cycles: 745443309 heartbeat IPC: 0.12062 cumulative IPC: 0.10266 (Simulation time: 0 hr 46 min 16 sec) 
select_counter is 1390
Heartbeat CPU 0 instructions: 87000000 cycles: 760517680 heartbeat IPC: 0.0663378 cumulative IPC: 0.101935 (Simulation time: 0 hr 46 min 23 sec) 
select_counter is 1555
Heartbeat CPU 0 instructions: 88000000 cycles: 767919799 heartbeat IPC: 0.135096 cumulative IPC: 0.102257 (Simulation time: 0 hr 46 min 28 sec) 
select_counter is 937
Heartbeat CPU 0 instructions: 89000000 cycles: 775324550 heartbeat IPC: 0.135048 cumulative IPC: 0.102572 (Simulation time: 0 hr 46 min 33 sec) 
select_counter is 384
Heartbeat CPU 0 instructions: 90000002 cycles: 789111486 heartbeat IPC: 0.0725326 cumulative IPC: 0.102044 (Simulation time: 0 hr 46 min 39 sec) 
select_counter is 319
Heartbeat CPU 0 instructions: 91000000 cycles: 797965350 heartbeat IPC: 0.112945 cumulative IPC: 0.102166 (Simulation time: 0 hr 46 min 44 sec) 
select_counter is 1984
Heartbeat CPU 0 instructions: 92000000 cycles: 805351505 heartbeat IPC: 0.135388 cumulative IPC: 0.102472 (Simulation time: 0 hr 46 min 49 sec) 
select_counter is 1362
Heartbeat CPU 0 instructions: 93000003 cycles: 816648266 heartbeat IPC: 0.0885212 cumulative IPC: 0.102278 (Simulation time: 0 hr 46 min 55 sec) 
select_counter is 907
Heartbeat CPU 0 instructions: 94000000 cycles: 828810788 heartbeat IPC: 0.0822195 cumulative IPC: 0.101982 (Simulation time: 0 hr 47 min 1 sec) 
select_counter is 790
Heartbeat CPU 0 instructions: 95000000 cycles: 835515915 heartbeat IPC: 0.14914 cumulative IPC: 0.102363 (Simulation time: 0 hr 47 min 6 sec) 
select_counter is 323
Heartbeat CPU 0 instructions: 96000000 cycles: 842790449 heartbeat IPC: 0.137466 cumulative IPC: 0.102668 (Simulation time: 0 hr 47 min 11 sec) 
select_counter is 1997
Heartbeat CPU 0 instructions: 97000003 cycles: 858764483 heartbeat IPC: 0.0626018 cumulative IPC: 0.101918 (Simulation time: 0 hr 47 min 18 sec) 
select_counter is 1963
Heartbeat CPU 0 instructions: 98000002 cycles: 866514258 heartbeat IPC: 0.129036 cumulative IPC: 0.102162 (Simulation time: 0 hr 47 min 23 sec) 
select_counter is 1404
Heartbeat CPU 0 instructions: 99000000 cycles: 874105214 heartbeat IPC: 0.131735 cumulative IPC: 0.10242 (Simulation time: 0 hr 47 min 28 sec) 
select_counter is 821
Heartbeat CPU 0 instructions: 100000000 cycles: 887643770 heartbeat IPC: 0.0738631 cumulative IPC: 0.101982 (Simulation time: 0 hr 47 min 34 sec) 
select_counter is 867
Heartbeat CPU 0 instructions: 101000000 cycles: 897889143 heartbeat IPC: 0.097605 cumulative IPC: 0.101932 (Simulation time: 0 hr 47 min 40 sec) 
select_counter is 535
Heartbeat CPU 0 instructions: 102000000 cycles: 905193430 heartbeat IPC: 0.136906 cumulative IPC: 0.102216 (Simulation time: 0 hr 47 min 45 sec) 
select_counter is 1830
Heartbeat CPU 0 instructions: 103000001 cycles: 912757057 heartbeat IPC: 0.132212 cumulative IPC: 0.102466 (Simulation time: 0 hr 47 min 50 sec) 
select_counter is 1212
Heartbeat CPU 0 instructions: 104000000 cycles: 928697272 heartbeat IPC: 0.0627344 cumulative IPC: 0.10178 (Simulation time: 0 hr 47 min 57 sec) 
select_counter is 1441
Heartbeat CPU 0 instructions: 105000000 cycles: 937163223 heartbeat IPC: 0.11812 cumulative IPC: 0.101928 (Simulation time: 0 hr 48 min 2 sec) 
select_counter is 933
Heartbeat CPU 0 instructions: 106000000 cycles: 944715372 heartbeat IPC: 0.132413 cumulative IPC: 0.102173 (Simulation time: 0 hr 48 min 7 sec) 
select_counter is 469
Heartbeat CPU 0 instructions: 107000000 cycles: 954475616 heartbeat IPC: 0.102456 cumulative IPC: 0.102176 (Simulation time: 0 hr 48 min 12 sec) 
select_counter is 82
Heartbeat CPU 0 instructions: 108000000 cycles: 968478756 heartbeat IPC: 0.0714126 cumulative IPC: 0.101729 (Simulation time: 0 hr 48 min 19 sec) 
select_counter is 200
Heartbeat CPU 0 instructions: 109000000 cycles: 975932004 heartbeat IPC: 0.13417 cumulative IPC: 0.101978 (Simulation time: 0 hr 48 min 24 sec) 
select_counter is 1694
Heartbeat CPU 0 instructions: 110000000 cycles: 984313029 heartbeat IPC: 0.119317 cumulative IPC: 0.102127 (Simulation time: 0 hr 48 min 29 sec) 
select_counter is 1082
Finished CPU 0 instructions: 100000002 cycles: 979176537 cummulative IPC: 0.102127 (Simulation time: 0 hr 48 min 29 sec) 

ChampSim completed all CPUs

Region of Interest Statistics

CPU 0 cummulative IPC: 0.102127 instructions: 100000002 cycles: 979176537
LLC TOTAL     ACCESS:   21079629  HIT:    8561042  MISS:   12518587
LLC LOAD      ACCESS:    9506894  HIT:    5249330  MISS:    4257564
LLC RFO       ACCESS:     164406  HIT:      83130  MISS:      81276
LLC PREFETCH  ACCESS:    9645556  HIT:    2115476  MISS:    7530080
LLC WRITEBACK ACCESS:    1762773  HIT:    1113106  MISS:     649667
Ship samples: 
10, 46, 82, 121, 146, 191, 203, 232, 278, 314, 351, 372, 384, 432, 454, 505, 531, 565, 588, 639, 655, 672, 718, 756, 774, 822, 839, 878, 911, 957, 976, 999, 1026, 1083, 1094, 1127, 1172, 1197, 1219, 1258, 1290, 1327, 1351, 1407, 1414, 1465, 1488, 1522, 1560, 1569, 1601, 1660, 1665, 1717, 1739, 1774, 1792, 1831, 1883, 1919, 1924, 1975, 2009, 2022, 
Lime duel samples: 
17, 42, 69, 100, 138, 190, 217, 233, 280, 299, 326, 379, 395, 446, 456, 489, 528, 552, 581, 623, 653, 696, 721, 747, 779, 809, 838, 870, 909, 936, 962, 1011, 1052, 1079, 1103, 1139, 1182, 1208, 1247, 1249, 1289, 1313, 1362, 1406, 1431, 1469, 1494, 1505, 1554, 1582, 1630, 1640, 1685, 1705, 1732, 1791, 1813, 1853, 1864, 1895, 1921, 1976, 2004, 2026, 
Lime samples: 
17, 100, 217, 299, 395, 489, 581, 696, 779, 870, 962, 1079, 1182, 1249, 1362, 1469, 1554, 1640, 1732, 1853, 1921, 
Insertion Distribution: 
	LOAD 144164 0 0 0 0 0 132455 733903 
	RFO 10116 0 0 0 0 0 9798 6850 
	PREF 0 350085 0 0 0 0 463283 1487218 
	WRITEBACK 0 0 0 0 0 0 0 136106 
Total Prefetch Downgrades: 428890
