
*** ChampSim Multicore Out-of-Order Simulator ***

Warmup Instructions: 10000000
Simulation Instructions: 100000000
Configuration: 2
Number of CPUs: 1
LLC sets: 2048
LLC ways: 16
Off-chip DRAM Channels: 1 Width: 64-bit Data Rate: 1600 MT/s

CPU 0 runs /datasets/cs240c-wi22-a00-public/data/Assignment2-gz/milc_744B.trace.gz
CPU 0 L1D next line prefetcher
CPU 0 L2C IP-based stride prefetcher
Heartbeat CPU 0 instructions: 1000000 cycles: 383656 heartbeat IPC: 2.6065 cumulative IPC: 2.6065 (Simulation time: 0 hr 0 min 21 sec) 
select_counter is 1042
Heartbeat CPU 0 instructions: 2000001 cycles: 767293 heartbeat IPC: 2.60663 cumulative IPC: 2.60657 (Simulation time: 0 hr 0 min 40 sec) 
select_counter is 1049
Heartbeat CPU 0 instructions: 3000001 cycles: 1150974 heartbeat IPC: 2.60633 cumulative IPC: 2.60649 (Simulation time: 0 hr 0 min 59 sec) 
select_counter is 1060
Heartbeat CPU 0 instructions: 4000000 cycles: 1534617 heartbeat IPC: 2.60659 cumulative IPC: 2.60651 (Simulation time: 0 hr 1 min 19 sec) 
select_counter is 1025
Heartbeat CPU 0 instructions: 5000001 cycles: 1918298 heartbeat IPC: 2.60633 cumulative IPC: 2.60648 (Simulation time: 0 hr 1 min 38 sec) 
select_counter is 1043
Heartbeat CPU 0 instructions: 6000002 cycles: 2301951 heartbeat IPC: 2.60652 cumulative IPC: 2.60649 (Simulation time: 0 hr 1 min 58 sec) 
select_counter is 1067
Heartbeat CPU 0 instructions: 7000002 cycles: 2685605 heartbeat IPC: 2.60652 cumulative IPC: 2.60649 (Simulation time: 0 hr 2 min 17 sec) 
select_counter is 1111
Heartbeat CPU 0 instructions: 8000000 cycles: 3069239 heartbeat IPC: 2.60665 cumulative IPC: 2.60651 (Simulation time: 0 hr 2 min 36 sec) 
select_counter is 1153
Heartbeat CPU 0 instructions: 9000003 cycles: 3452946 heartbeat IPC: 2.60616 cumulative IPC: 2.60647 (Simulation time: 0 hr 2 min 55 sec) 
select_counter is 1210
Heartbeat CPU 0 instructions: 10000002 cycles: 3836611 heartbeat IPC: 2.60644 cumulative IPC: 2.60647 (Simulation time: 0 hr 3 min 15 sec) 
select_counter is 1208

Warmup complete CPU 0 instructions: 10000002 cycles: 3836611 (Simulation time: 0 hr 3 min 15 sec) 

Heartbeat CPU 0 instructions: 11000003 cycles: 5245004 heartbeat IPC: 0.71003 cumulative IPC: 0.71003 (Simulation time: 0 hr 3 min 36 sec) 
select_counter is 1191
Heartbeat CPU 0 instructions: 12000000 cycles: 6653313 heartbeat IPC: 0.710069 cumulative IPC: 0.71005 (Simulation time: 0 hr 3 min 58 sec) 
select_counter is 1267
Heartbeat CPU 0 instructions: 13000003 cycles: 8060281 heartbeat IPC: 0.71075 cumulative IPC: 0.710283 (Simulation time: 0 hr 4 min 18 sec) 
select_counter is 1331
Heartbeat CPU 0 instructions: 14000000 cycles: 9466882 heartbeat IPC: 0.710932 cumulative IPC: 0.710445 (Simulation time: 0 hr 4 min 39 sec) 
select_counter is 1399
Heartbeat CPU 0 instructions: 15000000 cycles: 10868588 heartbeat IPC: 0.713416 cumulative IPC: 0.711037 (Simulation time: 0 hr 4 min 59 sec) 
select_counter is 1451
Heartbeat CPU 0 instructions: 16000000 cycles: 12269930 heartbeat IPC: 0.713602 cumulative IPC: 0.711463 (Simulation time: 0 hr 5 min 19 sec) 
select_counter is 1496
Heartbeat CPU 0 instructions: 17000001 cycles: 13682505 heartbeat IPC: 0.707928 cumulative IPC: 0.710956 (Simulation time: 0 hr 5 min 39 sec) 
select_counter is 1513
Heartbeat CPU 0 instructions: 18000000 cycles: 15098203 heartbeat IPC: 0.706365 cumulative IPC: 0.710379 (Simulation time: 0 hr 5 min 59 sec) 
select_counter is 1607
Heartbeat CPU 0 instructions: 19000003 cycles: 16505322 heartbeat IPC: 0.710674 cumulative IPC: 0.710412 (Simulation time: 0 hr 6 min 19 sec) 
select_counter is 1716
Heartbeat CPU 0 instructions: 20000000 cycles: 17922024 heartbeat IPC: 0.705863 cumulative IPC: 0.709954 (Simulation time: 0 hr 6 min 40 sec) 
select_counter is 1710
Heartbeat CPU 0 instructions: 21000003 cycles: 19334180 heartbeat IPC: 0.708139 cumulative IPC: 0.709789 (Simulation time: 0 hr 7 min 1 sec) 
select_counter is 1738
Heartbeat CPU 0 instructions: 22000002 cycles: 20750278 heartbeat IPC: 0.706165 cumulative IPC: 0.709485 (Simulation time: 0 hr 7 min 21 sec) 
select_counter is 1784
Heartbeat CPU 0 instructions: 23000000 cycles: 22163919 heartbeat IPC: 0.707392 cumulative IPC: 0.709324 (Simulation time: 0 hr 7 min 41 sec) 
select_counter is 1885
Heartbeat CPU 0 instructions: 24000000 cycles: 23573085 heartbeat IPC: 0.70964 cumulative IPC: 0.709346 (Simulation time: 0 hr 8 min 2 sec) 
select_counter is 1962
Heartbeat CPU 0 instructions: 25000002 cycles: 24986093 heartbeat IPC: 0.707712 cumulative IPC: 0.709237 (Simulation time: 0 hr 8 min 21 sec) 
select_counter is 2021
Heartbeat CPU 0 instructions: 26000001 cycles: 26400236 heartbeat IPC: 0.707141 cumulative IPC: 0.709106 (Simulation time: 0 hr 8 min 42 sec) 
select_counter is 2037
Heartbeat CPU 0 instructions: 27000001 cycles: 27815055 heartbeat IPC: 0.706804 cumulative IPC: 0.70897 (Simulation time: 0 hr 9 min 3 sec) 
select_counter is 2040
Heartbeat CPU 0 instructions: 28000000 cycles: 29233343 heartbeat IPC: 0.705075 cumulative IPC: 0.708753 (Simulation time: 0 hr 9 min 23 sec) 
select_counter is 2045
Heartbeat CPU 0 instructions: 29000000 cycles: 30647042 heartbeat IPC: 0.707364 cumulative IPC: 0.708679 (Simulation time: 0 hr 9 min 43 sec) 
select_counter is 2041
Heartbeat CPU 0 instructions: 30000000 cycles: 32065519 heartbeat IPC: 0.704981 cumulative IPC: 0.708494 (Simulation time: 0 hr 10 min 4 sec) 
select_counter is 2027
Heartbeat CPU 0 instructions: 31000003 cycles: 33485799 heartbeat IPC: 0.704089 cumulative IPC: 0.708282 (Simulation time: 0 hr 10 min 25 sec) 
select_counter is 2042
Heartbeat CPU 0 instructions: 32000000 cycles: 34903252 heartbeat IPC: 0.705489 cumulative IPC: 0.708155 (Simulation time: 0 hr 10 min 47 sec) 
select_counter is 2043
Heartbeat CPU 0 instructions: 33000001 cycles: 36323088 heartbeat IPC: 0.704307 cumulative IPC: 0.707987 (Simulation time: 0 hr 11 min 8 sec) 
select_counter is 1999
Heartbeat CPU 0 instructions: 34000002 cycles: 37746129 heartbeat IPC: 0.702721 cumulative IPC: 0.707766 (Simulation time: 0 hr 11 min 30 sec) 
select_counter is 1996
Heartbeat CPU 0 instructions: 35000000 cycles: 39166642 heartbeat IPC: 0.70397 cumulative IPC: 0.707613 (Simulation time: 0 hr 11 min 51 sec) 
select_counter is 2016
Heartbeat CPU 0 instructions: 36000000 cycles: 40579645 heartbeat IPC: 0.707713 cumulative IPC: 0.707617 (Simulation time: 0 hr 12 min 13 sec) 
select_counter is 2030
Heartbeat CPU 0 instructions: 37000001 cycles: 42005074 heartbeat IPC: 0.701544 cumulative IPC: 0.70739 (Simulation time: 0 hr 12 min 34 sec) 
select_counter is 2040
Heartbeat CPU 0 instructions: 38000001 cycles: 43423584 heartbeat IPC: 0.704965 cumulative IPC: 0.707303 (Simulation time: 0 hr 12 min 55 sec) 
select_counter is 2042
Heartbeat CPU 0 instructions: 39000001 cycles: 44838527 heartbeat IPC: 0.706742 cumulative IPC: 0.707284 (Simulation time: 0 hr 13 min 16 sec) 
select_counter is 2036
Heartbeat CPU 0 instructions: 40000000 cycles: 46255307 heartbeat IPC: 0.705825 cumulative IPC: 0.707235 (Simulation time: 0 hr 13 min 37 sec) 
select_counter is 2024
Heartbeat CPU 0 instructions: 41000000 cycles: 47670490 heartbeat IPC: 0.706622 cumulative IPC: 0.707215 (Simulation time: 0 hr 13 min 57 sec) 
select_counter is 2008
Heartbeat CPU 0 instructions: 42000002 cycles: 49085647 heartbeat IPC: 0.706637 cumulative IPC: 0.707197 (Simulation time: 0 hr 14 min 17 sec) 
select_counter is 2012
Heartbeat CPU 0 instructions: 43000003 cycles: 50502675 heartbeat IPC: 0.705703 cumulative IPC: 0.707152 (Simulation time: 0 hr 14 min 38 sec) 
select_counter is 2035
Heartbeat CPU 0 instructions: 44000000 cycles: 51920952 heartbeat IPC: 0.705079 cumulative IPC: 0.707091 (Simulation time: 0 hr 15 min 0 sec) 
select_counter is 2044
Heartbeat CPU 0 instructions: 45000000 cycles: 53344045 heartbeat IPC: 0.702695 cumulative IPC: 0.706964 (Simulation time: 0 hr 15 min 20 sec) 
select_counter is 2047
Heartbeat CPU 0 instructions: 46000003 cycles: 54763383 heartbeat IPC: 0.704556 cumulative IPC: 0.706897 (Simulation time: 0 hr 15 min 41 sec) 
select_counter is 2039
Heartbeat CPU 0 instructions: 47000002 cycles: 56178837 heartbeat IPC: 0.706486 cumulative IPC: 0.706886 (Simulation time: 0 hr 16 min 1 sec) 
select_counter is 2002
Heartbeat CPU 0 instructions: 48000000 cycles: 57599349 heartbeat IPC: 0.70397 cumulative IPC: 0.706809 (Simulation time: 0 hr 16 min 21 sec) 
select_counter is 1968
Heartbeat CPU 0 instructions: 49000001 cycles: 59012874 heartbeat IPC: 0.707452 cumulative IPC: 0.706826 (Simulation time: 0 hr 16 min 42 sec) 
select_counter is 2034
Heartbeat CPU 0 instructions: 50000001 cycles: 60434053 heartbeat IPC: 0.703641 cumulative IPC: 0.706746 (Simulation time: 0 hr 17 min 3 sec) 
select_counter is 2047
Heartbeat CPU 0 instructions: 51000001 cycles: 61854571 heartbeat IPC: 0.703969 cumulative IPC: 0.706678 (Simulation time: 0 hr 17 min 23 sec) 
select_counter is 2005
Heartbeat CPU 0 instructions: 52000000 cycles: 63271779 heartbeat IPC: 0.705612 cumulative IPC: 0.706652 (Simulation time: 0 hr 17 min 43 sec) 
select_counter is 2032
Heartbeat CPU 0 instructions: 53000000 cycles: 64691241 heartbeat IPC: 0.704492 cumulative IPC: 0.706602 (Simulation time: 0 hr 18 min 5 sec) 
select_counter is 2028
Heartbeat CPU 0 instructions: 54000001 cycles: 66110564 heartbeat IPC: 0.704562 cumulative IPC: 0.706555 (Simulation time: 0 hr 18 min 26 sec) 
select_counter is 2034
Heartbeat CPU 0 instructions: 55000003 cycles: 67533673 heartbeat IPC: 0.702688 cumulative IPC: 0.706469 (Simulation time: 0 hr 18 min 48 sec) 
select_counter is 1996
Heartbeat CPU 0 instructions: 56000000 cycles: 68956535 heartbeat IPC: 0.702807 cumulative IPC: 0.706389 (Simulation time: 0 hr 19 min 10 sec) 
select_counter is 1985
Heartbeat CPU 0 instructions: 57000000 cycles: 70374408 heartbeat IPC: 0.705282 cumulative IPC: 0.706365 (Simulation time: 0 hr 19 min 31 sec) 
select_counter is 1973
Heartbeat CPU 0 instructions: 58000000 cycles: 71790757 heartbeat IPC: 0.706041 cumulative IPC: 0.706359 (Simulation time: 0 hr 19 min 52 sec) 
select_counter is 2011
Heartbeat CPU 0 instructions: 59000002 cycles: 73210211 heartbeat IPC: 0.704498 cumulative IPC: 0.706321 (Simulation time: 0 hr 20 min 13 sec) 
select_counter is 2028
Heartbeat CPU 0 instructions: 60000000 cycles: 74621803 heartbeat IPC: 0.708419 cumulative IPC: 0.706362 (Simulation time: 0 hr 20 min 34 sec) 
select_counter is 2039
Heartbeat CPU 0 instructions: 61000001 cycles: 76037958 heartbeat IPC: 0.706138 cumulative IPC: 0.706358 (Simulation time: 0 hr 20 min 55 sec) 
select_counter is 2046
Heartbeat CPU 0 instructions: 62000003 cycles: 77465094 heartbeat IPC: 0.700705 cumulative IPC: 0.706248 (Simulation time: 0 hr 21 min 16 sec) 
select_counter is 2012
Heartbeat CPU 0 instructions: 63000001 cycles: 78888617 heartbeat IPC: 0.702481 cumulative IPC: 0.706177 (Simulation time: 0 hr 21 min 37 sec) 
select_counter is 2011
Heartbeat CPU 0 instructions: 64000000 cycles: 80304098 heartbeat IPC: 0.706473 cumulative IPC: 0.706182 (Simulation time: 0 hr 21 min 59 sec) 
select_counter is 2015
Heartbeat CPU 0 instructions: 65000002 cycles: 81722164 heartbeat IPC: 0.705187 cumulative IPC: 0.706164 (Simulation time: 0 hr 22 min 19 sec) 
select_counter is 2033
Heartbeat CPU 0 instructions: 66000001 cycles: 83139851 heartbeat IPC: 0.705374 cumulative IPC: 0.70615 (Simulation time: 0 hr 22 min 40 sec) 
select_counter is 2042
Heartbeat CPU 0 instructions: 67000003 cycles: 84555305 heartbeat IPC: 0.706488 cumulative IPC: 0.706156 (Simulation time: 0 hr 23 min 2 sec) 
select_counter is 2036
Heartbeat CPU 0 instructions: 68000000 cycles: 85978866 heartbeat IPC: 0.702462 cumulative IPC: 0.706092 (Simulation time: 0 hr 23 min 23 sec) 
select_counter is 2040
Heartbeat CPU 0 instructions: 69000003 cycles: 87399011 heartbeat IPC: 0.704156 cumulative IPC: 0.706059 (Simulation time: 0 hr 23 min 45 sec) 
select_counter is 2033
Heartbeat CPU 0 instructions: 70000002 cycles: 88815705 heartbeat IPC: 0.705868 cumulative IPC: 0.706056 (Simulation time: 0 hr 24 min 6 sec) 
select_counter is 2042
Heartbeat CPU 0 instructions: 71000002 cycles: 90225901 heartbeat IPC: 0.709121 cumulative IPC: 0.706106 (Simulation time: 0 hr 24 min 26 sec) 
select_counter is 2043
Heartbeat CPU 0 instructions: 72000000 cycles: 91647667 heartbeat IPC: 0.703349 cumulative IPC: 0.706061 (Simulation time: 0 hr 24 min 47 sec) 
select_counter is 2036
Heartbeat CPU 0 instructions: 73000002 cycles: 93066208 heartbeat IPC: 0.704951 cumulative IPC: 0.706044 (Simulation time: 0 hr 25 min 8 sec) 
select_counter is 2036
Heartbeat CPU 0 instructions: 74000002 cycles: 94484520 heartbeat IPC: 0.705063 cumulative IPC: 0.706028 (Simulation time: 0 hr 25 min 28 sec) 
select_counter is 2033
Heartbeat CPU 0 instructions: 75000001 cycles: 95896369 heartbeat IPC: 0.70829 cumulative IPC: 0.706063 (Simulation time: 0 hr 25 min 50 sec) 
select_counter is 2042
Heartbeat CPU 0 instructions: 76000000 cycles: 97313545 heartbeat IPC: 0.705628 cumulative IPC: 0.706057 (Simulation time: 0 hr 26 min 11 sec) 
select_counter is 2037
Heartbeat CPU 0 instructions: 77000002 cycles: 98726213 heartbeat IPC: 0.707882 cumulative IPC: 0.706084 (Simulation time: 0 hr 26 min 32 sec) 
select_counter is 2034
Heartbeat CPU 0 instructions: 78000000 cycles: 100146676 heartbeat IPC: 0.703994 cumulative IPC: 0.706053 (Simulation time: 0 hr 26 min 52 sec) 
select_counter is 2015
Heartbeat CPU 0 instructions: 79000000 cycles: 101565260 heartbeat IPC: 0.704928 cumulative IPC: 0.706037 (Simulation time: 0 hr 27 min 12 sec) 
select_counter is 2032
Heartbeat CPU 0 instructions: 80000000 cycles: 102987899 heartbeat IPC: 0.702919 cumulative IPC: 0.705992 (Simulation time: 0 hr 27 min 33 sec) 
select_counter is 2008
Heartbeat CPU 0 instructions: 81000003 cycles: 104403245 heartbeat IPC: 0.706543 cumulative IPC: 0.706 (Simulation time: 0 hr 27 min 53 sec) 
select_counter is 2018
Heartbeat CPU 0 instructions: 82000003 cycles: 105819094 heartbeat IPC: 0.70629 cumulative IPC: 0.706004 (Simulation time: 0 hr 28 min 14 sec) 
select_counter is 2024
Heartbeat CPU 0 instructions: 83000002 cycles: 107233796 heartbeat IPC: 0.706862 cumulative IPC: 0.706015 (Simulation time: 0 hr 28 min 34 sec) 
select_counter is 2018
Heartbeat CPU 0 instructions: 84000000 cycles: 108651012 heartbeat IPC: 0.705607 cumulative IPC: 0.70601 (Simulation time: 0 hr 28 min 55 sec) 
select_counter is 2012
Heartbeat CPU 0 instructions: 85000000 cycles: 110069390 heartbeat IPC: 0.705031 cumulative IPC: 0.705997 (Simulation time: 0 hr 29 min 17 sec) 
select_counter is 2012
Heartbeat CPU 0 instructions: 86000001 cycles: 111483515 heartbeat IPC: 0.707152 cumulative IPC: 0.706012 (Simulation time: 0 hr 29 min 39 sec) 
select_counter is 2028
Heartbeat CPU 0 instructions: 87000001 cycles: 112905042 heartbeat IPC: 0.703469 cumulative IPC: 0.705979 (Simulation time: 0 hr 30 min 0 sec) 
select_counter is 2025
Heartbeat CPU 0 instructions: 88000000 cycles: 114328066 heartbeat IPC: 0.702728 cumulative IPC: 0.705937 (Simulation time: 0 hr 30 min 21 sec) 
select_counter is 2045
Heartbeat CPU 0 instructions: 89000001 cycles: 115741577 heartbeat IPC: 0.707459 cumulative IPC: 0.705956 (Simulation time: 0 hr 30 min 42 sec) 
select_counter is 2027
Heartbeat CPU 0 instructions: 90000000 cycles: 117162090 heartbeat IPC: 0.70397 cumulative IPC: 0.705931 (Simulation time: 0 hr 31 min 1 sec) 
select_counter is 2013
Heartbeat CPU 0 instructions: 91000001 cycles: 118581570 heartbeat IPC: 0.704484 cumulative IPC: 0.705913 (Simulation time: 0 hr 31 min 23 sec) 
select_counter is 2041
Heartbeat CPU 0 instructions: 92000000 cycles: 123422461 heartbeat IPC: 0.206573 cumulative IPC: 0.6857 (Simulation time: 0 hr 32 min 9 sec) 
select_counter is 2047
Heartbeat CPU 0 instructions: 93000000 cycles: 128092960 heartbeat IPC: 0.21411 cumulative IPC: 0.667974 (Simulation time: 0 hr 32 min 56 sec) 
select_counter is 2027
Heartbeat CPU 0 instructions: 94000002 cycles: 131068164 heartbeat IPC: 0.336112 cumulative IPC: 0.660214 (Simulation time: 0 hr 33 min 33 sec) 
select_counter is 1998
Heartbeat CPU 0 instructions: 95000000 cycles: 132284971 heartbeat IPC: 0.821821 cumulative IPC: 0.661745 (Simulation time: 0 hr 33 min 56 sec) 
select_counter is 2047
Heartbeat CPU 0 instructions: 96000000 cycles: 133642440 heartbeat IPC: 0.736665 cumulative IPC: 0.662528 (Simulation time: 0 hr 34 min 18 sec) 
select_counter is 2042
Heartbeat CPU 0 instructions: 97000002 cycles: 134910699 heartbeat IPC: 0.788484 cumulative IPC: 0.663747 (Simulation time: 0 hr 34 min 37 sec) 
select_counter is 2038
Heartbeat CPU 0 instructions: 98000003 cycles: 136172234 heartbeat IPC: 0.792686 cumulative IPC: 0.664976 (Simulation time: 0 hr 34 min 56 sec) 
select_counter is 2034
Heartbeat CPU 0 instructions: 99000000 cycles: 137437619 heartbeat IPC: 0.790271 cumulative IPC: 0.666163 (Simulation time: 0 hr 35 min 15 sec) 
select_counter is 2045
Heartbeat CPU 0 instructions: 100000000 cycles: 138697651 heartbeat IPC: 0.793631 cumulative IPC: 0.667354 (Simulation time: 0 hr 35 min 41 sec) 
select_counter is 2042
Heartbeat CPU 0 instructions: 101000001 cycles: 139942655 heartbeat IPC: 0.803211 cumulative IPC: 0.668596 (Simulation time: 0 hr 36 min 2 sec) 
select_counter is 2040
Heartbeat CPU 0 instructions: 102000000 cycles: 141197385 heartbeat IPC: 0.796983 cumulative IPC: 0.669769 (Simulation time: 0 hr 36 min 20 sec) 
select_counter is 2044
Heartbeat CPU 0 instructions: 103000002 cycles: 142455347 heartbeat IPC: 0.794938 cumulative IPC: 0.670905 (Simulation time: 0 hr 36 min 38 sec) 
select_counter is 2039
Heartbeat CPU 0 instructions: 104000000 cycles: 143718826 heartbeat IPC: 0.791464 cumulative IPC: 0.671994 (Simulation time: 0 hr 36 min 55 sec) 
select_counter is 2046
Heartbeat CPU 0 instructions: 105000003 cycles: 144977834 heartbeat IPC: 0.794279 cumulative IPC: 0.673085 (Simulation time: 0 hr 37 min 13 sec) 
select_counter is 2044
Heartbeat CPU 0 instructions: 106000002 cycles: 146232266 heartbeat IPC: 0.797173 cumulative IPC: 0.674178 (Simulation time: 0 hr 37 min 30 sec) 
select_counter is 2006
Heartbeat CPU 0 instructions: 107000002 cycles: 147493889 heartbeat IPC: 0.79263 cumulative IPC: 0.675218 (Simulation time: 0 hr 37 min 47 sec) 
select_counter is 1990
Heartbeat CPU 0 instructions: 108000000 cycles: 148754954 heartbeat IPC: 0.792979 cumulative IPC: 0.676243 (Simulation time: 0 hr 38 min 4 sec) 
select_counter is 2018
Heartbeat CPU 0 instructions: 109000001 cycles: 150009451 heartbeat IPC: 0.797133 cumulative IPC: 0.67728 (Simulation time: 0 hr 38 min 21 sec) 
select_counter is 2045
Heartbeat CPU 0 instructions: 110000001 cycles: 151269248 heartbeat IPC: 0.793779 cumulative IPC: 0.678276 (Simulation time: 0 hr 38 min 37 sec) 
select_counter is 2043
Finished CPU 0 instructions: 100000003 cycles: 147432638 cummulative IPC: 0.678276 (Simulation time: 0 hr 38 min 37 sec) 

ChampSim completed all CPUs

Region of Interest Statistics

CPU 0 cummulative IPC: 0.678276 instructions: 100000003 cycles: 147432638
LLC TOTAL     ACCESS:    2872436  HIT:     272941  MISS:    2599495
LLC LOAD      ACCESS:     739335  HIT:         17  MISS:     739318
LLC RFO       ACCESS:     423298  HIT:        210  MISS:     423088
LLC PREFETCH  ACCESS:    1009085  HIT:        801  MISS:    1008284
LLC WRITEBACK ACCESS:     700718  HIT:     271913  MISS:     428805
Ship samples: 
15, 38, 87, 122, 132, 164, 207, 254, 266, 310, 339, 359, 387, 423, 454, 503, 536, 574, 599, 617, 668, 702, 735, 755, 783, 818, 848, 879, 898, 954, 977, 992, 1037, 1084, 1092, 1122, 1174, 1201, 1216, 1250, 1293, 1337, 1364, 1384, 1415, 1458, 1472, 1534, 1549, 1588, 1618, 1635, 1667, 1723, 1742, 1772, 1795, 1826, 1874, 1890, 1947, 1970, 1991, 2026, 
Lime duel samples: 
11, 32, 93, 99, 142, 163, 195, 242, 264, 306, 329, 358, 396, 424, 455, 498, 519, 564, 603, 632, 667, 685, 715, 765, 777, 809, 835, 889, 915, 950, 968, 1007, 1029, 1083, 1094, 1143, 1169, 1197, 1235, 1274, 1289, 1317, 1350, 1388, 1418, 1457, 1496, 1522, 1550, 1594, 1617, 1654, 1672, 1716, 1731, 1789, 1819, 1830, 1879, 1898, 1945, 1972, 2012, 2032, 
Lime samples: 
11, 99, 195, 306, 396, 498, 603, 685, 777, 889, 968, 1083, 1169, 1274, 1350, 1457, 1550, 1654, 1731, 1830, 1945, 
Insertion Distribution: 
	LOAD 0 0 0 0 0 0 790 25083 
	RFO 0 0 0 0 0 0 997 12022 
	PREF 0 0 0 0 0 0 931 37186 
	WRITEBACK 0 0 0 0 0 0 0 20484 
Total Prefetch Downgrades: 3
