
*** ChampSim Multicore Out-of-Order Simulator ***

Warmup Instructions: 10000000
Simulation Instructions: 100000000
Configuration: 2
Number of CPUs: 1
LLC sets: 2048
LLC ways: 16
Off-chip DRAM Channels: 1 Width: 64-bit Data Rate: 1600 MT/s

CPU 0 runs /datasets/cs240c-wi22-a00-public/data/Assignment2-gz/bzip2_281B.trace.gz
CPU 0 L1D next line prefetcher
CPU 0 L2C IP-based stride prefetcher
Heartbeat CPU 0 instructions: 1000000 cycles: 445883 heartbeat IPC: 2.24274 cumulative IPC: 2.24274 (Simulation time: 0 hr 0 min 25 sec) 
select_counter is 982
Heartbeat CPU 0 instructions: 2000003 cycles: 900142 heartbeat IPC: 2.20139 cumulative IPC: 2.22187 (Simulation time: 0 hr 0 min 46 sec) 
select_counter is 895
Heartbeat CPU 0 instructions: 3000002 cycles: 1314792 heartbeat IPC: 2.41167 cumulative IPC: 2.28173 (Simulation time: 0 hr 1 min 9 sec) 
select_counter is 638
Heartbeat CPU 0 instructions: 4000000 cycles: 1753251 heartbeat IPC: 2.28071 cumulative IPC: 2.28148 (Simulation time: 0 hr 1 min 34 sec) 
select_counter is 631
Heartbeat CPU 0 instructions: 5000002 cycles: 2175257 heartbeat IPC: 2.36964 cumulative IPC: 2.29858 (Simulation time: 0 hr 1 min 57 sec) 
select_counter is 255
Heartbeat CPU 0 instructions: 6000000 cycles: 2665912 heartbeat IPC: 2.03809 cumulative IPC: 2.25064 (Simulation time: 0 hr 2 min 22 sec) 
select_counter is 66
Heartbeat CPU 0 instructions: 7000001 cycles: 3193184 heartbeat IPC: 1.89656 cumulative IPC: 2.19217 (Simulation time: 0 hr 2 min 48 sec) 
select_counter is 2045
Heartbeat CPU 0 instructions: 8000000 cycles: 3725785 heartbeat IPC: 1.87758 cumulative IPC: 2.1472 (Simulation time: 0 hr 3 min 12 sec) 
select_counter is 1994
Heartbeat CPU 0 instructions: 9000000 cycles: 4232222 heartbeat IPC: 1.97458 cumulative IPC: 2.12654 (Simulation time: 0 hr 3 min 37 sec) 
select_counter is 1880
Heartbeat CPU 0 instructions: 10000002 cycles: 4685177 heartbeat IPC: 2.20773 cumulative IPC: 2.13439 (Simulation time: 0 hr 3 min 59 sec) 
select_counter is 1860

Warmup complete CPU 0 instructions: 10000002 cycles: 4685177 (Simulation time: 0 hr 3 min 59 sec) 

Heartbeat CPU 0 instructions: 11000001 cycles: 6197101 heartbeat IPC: 0.661408 cumulative IPC: 0.661408 (Simulation time: 0 hr 4 min 21 sec) 
select_counter is 1818
Heartbeat CPU 0 instructions: 12000000 cycles: 7477183 heartbeat IPC: 0.781199 cumulative IPC: 0.71633 (Simulation time: 0 hr 4 min 50 sec) 
select_counter is 1711
Heartbeat CPU 0 instructions: 13000001 cycles: 8832632 heartbeat IPC: 0.737764 cumulative IPC: 0.723335 (Simulation time: 0 hr 5 min 14 sec) 
select_counter is 1718
Heartbeat CPU 0 instructions: 14000000 cycles: 10300980 heartbeat IPC: 0.681037 cumulative IPC: 0.712275 (Simulation time: 0 hr 5 min 33 sec) 
select_counter is 1675
Heartbeat CPU 0 instructions: 15000000 cycles: 11808693 heartbeat IPC: 0.663256 cumulative IPC: 0.7019 (Simulation time: 0 hr 5 min 55 sec) 
select_counter is 1527
Heartbeat CPU 0 instructions: 16000000 cycles: 13375845 heartbeat IPC: 0.6381 cumulative IPC: 0.690395 (Simulation time: 0 hr 6 min 18 sec) 
select_counter is 1579
Heartbeat CPU 0 instructions: 17000000 cycles: 14891671 heartbeat IPC: 0.659706 cumulative IPC: 0.685838 (Simulation time: 0 hr 6 min 40 sec) 
select_counter is 1775
Heartbeat CPU 0 instructions: 18000002 cycles: 16566850 heartbeat IPC: 0.596952 cumulative IPC: 0.673306 (Simulation time: 0 hr 6 min 58 sec) 
select_counter is 1717
Heartbeat CPU 0 instructions: 19000003 cycles: 18033380 heartbeat IPC: 0.681882 cumulative IPC: 0.674248 (Simulation time: 0 hr 7 min 16 sec) 
select_counter is 1677
Heartbeat CPU 0 instructions: 20000000 cycles: 19723855 heartbeat IPC: 0.591548 cumulative IPC: 0.664952 (Simulation time: 0 hr 7 min 41 sec) 
select_counter is 1610
Heartbeat CPU 0 instructions: 21000001 cycles: 21332020 heartbeat IPC: 0.621827 cumulative IPC: 0.660786 (Simulation time: 0 hr 8 min 7 sec) 
select_counter is 1590
Heartbeat CPU 0 instructions: 22000000 cycles: 23215542 heartbeat IPC: 0.53092 cumulative IPC: 0.647586 (Simulation time: 0 hr 8 min 33 sec) 
select_counter is 1600
Heartbeat CPU 0 instructions: 23000001 cycles: 24840411 heartbeat IPC: 0.615435 cumulative IPC: 0.644994 (Simulation time: 0 hr 8 min 55 sec) 
select_counter is 1578
Heartbeat CPU 0 instructions: 24000000 cycles: 26643851 heartbeat IPC: 0.554495 cumulative IPC: 0.637561 (Simulation time: 0 hr 9 min 27 sec) 
select_counter is 1351
Heartbeat CPU 0 instructions: 25000002 cycles: 28328033 heartbeat IPC: 0.593761 cumulative IPC: 0.634441 (Simulation time: 0 hr 10 min 1 sec) 
select_counter is 1292
Heartbeat CPU 0 instructions: 26000003 cycles: 29631232 heartbeat IPC: 0.767343 cumulative IPC: 0.641384 (Simulation time: 0 hr 10 min 34 sec) 
select_counter is 1117
Heartbeat CPU 0 instructions: 27000002 cycles: 31039711 heartbeat IPC: 0.709985 cumulative IPC: 0.64505 (Simulation time: 0 hr 11 min 4 sec) 
select_counter is 1023
Heartbeat CPU 0 instructions: 28000000 cycles: 32007953 heartbeat IPC: 1.0328 cumulative IPC: 0.658791 (Simulation time: 0 hr 11 min 29 sec) 
select_counter is 1025
Heartbeat CPU 0 instructions: 29000001 cycles: 32910686 heartbeat IPC: 1.10775 cumulative IPC: 0.67315 (Simulation time: 0 hr 11 min 53 sec) 
select_counter is 1024
Heartbeat CPU 0 instructions: 30000000 cycles: 33827868 heartbeat IPC: 1.0903 cumulative IPC: 0.686278 (Simulation time: 0 hr 12 min 15 sec) 
select_counter is 1022
Heartbeat CPU 0 instructions: 31000003 cycles: 34845637 heartbeat IPC: 0.982544 cumulative IPC: 0.696276 (Simulation time: 0 hr 12 min 36 sec) 
select_counter is 988
Heartbeat CPU 0 instructions: 32000000 cycles: 35769413 heartbeat IPC: 1.08251 cumulative IPC: 0.707754 (Simulation time: 0 hr 12 min 57 sec) 
select_counter is 975
Heartbeat CPU 0 instructions: 33000002 cycles: 36765002 heartbeat IPC: 1.00443 cumulative IPC: 0.716962 (Simulation time: 0 hr 13 min 22 sec) 
select_counter is 978
Heartbeat CPU 0 instructions: 34000000 cycles: 37713489 heartbeat IPC: 1.05431 cumulative IPC: 0.726649 (Simulation time: 0 hr 13 min 42 sec) 
select_counter is 967
Heartbeat CPU 0 instructions: 35000000 cycles: 38572275 heartbeat IPC: 1.16443 cumulative IPC: 0.737744 (Simulation time: 0 hr 14 min 2 sec) 
select_counter is 965
Heartbeat CPU 0 instructions: 36000000 cycles: 39415270 heartbeat IPC: 1.18625 cumulative IPC: 0.74863 (Simulation time: 0 hr 14 min 20 sec) 
select_counter is 965
Heartbeat CPU 0 instructions: 37000000 cycles: 40267779 heartbeat IPC: 1.17301 cumulative IPC: 0.758798 (Simulation time: 0 hr 14 min 39 sec) 
select_counter is 963
Heartbeat CPU 0 instructions: 38000002 cycles: 41063134 heartbeat IPC: 1.2573 cumulative IPC: 0.769697 (Simulation time: 0 hr 15 min 0 sec) 
select_counter is 960
Heartbeat CPU 0 instructions: 39000001 cycles: 41969954 heartbeat IPC: 1.10275 cumulative IPC: 0.777797 (Simulation time: 0 hr 15 min 21 sec) 
select_counter is 960
Heartbeat CPU 0 instructions: 40000000 cycles: 42903307 heartbeat IPC: 1.0714 cumulative IPC: 0.784968 (Simulation time: 0 hr 15 min 43 sec) 
select_counter is 952
Heartbeat CPU 0 instructions: 41000002 cycles: 43873386 heartbeat IPC: 1.03085 cumulative IPC: 0.791054 (Simulation time: 0 hr 16 min 2 sec) 
select_counter is 934
Heartbeat CPU 0 instructions: 42000001 cycles: 44834765 heartbeat IPC: 1.04017 cumulative IPC: 0.797019 (Simulation time: 0 hr 16 min 21 sec) 
select_counter is 916
Heartbeat CPU 0 instructions: 43000001 cycles: 45786540 heartbeat IPC: 1.05067 cumulative IPC: 0.802893 (Simulation time: 0 hr 16 min 39 sec) 
select_counter is 903
Heartbeat CPU 0 instructions: 44000000 cycles: 46766933 heartbeat IPC: 1.02 cumulative IPC: 0.807951 (Simulation time: 0 hr 17 min 0 sec) 
select_counter is 884
Heartbeat CPU 0 instructions: 45000001 cycles: 47695132 heartbeat IPC: 1.07736 cumulative IPC: 0.813765 (Simulation time: 0 hr 17 min 19 sec) 
select_counter is 862
Heartbeat CPU 0 instructions: 46000000 cycles: 48604788 heartbeat IPC: 1.09932 cumulative IPC: 0.819679 (Simulation time: 0 hr 17 min 41 sec) 
select_counter is 850
Heartbeat CPU 0 instructions: 47000000 cycles: 49486203 heartbeat IPC: 1.13454 cumulative IPC: 0.825874 (Simulation time: 0 hr 18 min 1 sec) 
select_counter is 842
Heartbeat CPU 0 instructions: 48000000 cycles: 50395067 heartbeat IPC: 1.10027 cumulative IPC: 0.83133 (Simulation time: 0 hr 18 min 24 sec) 
select_counter is 837
Heartbeat CPU 0 instructions: 49000001 cycles: 51338271 heartbeat IPC: 1.06022 cumulative IPC: 0.835957 (Simulation time: 0 hr 18 min 45 sec) 
select_counter is 840
Heartbeat CPU 0 instructions: 50000003 cycles: 52320985 heartbeat IPC: 1.01759 cumulative IPC: 0.839704 (Simulation time: 0 hr 19 min 8 sec) 
select_counter is 841
Heartbeat CPU 0 instructions: 51000002 cycles: 53278963 heartbeat IPC: 1.04386 cumulative IPC: 0.843729 (Simulation time: 0 hr 19 min 29 sec) 
select_counter is 821
Heartbeat CPU 0 instructions: 52000000 cycles: 54244449 heartbeat IPC: 1.03575 cumulative IPC: 0.84747 (Simulation time: 0 hr 19 min 51 sec) 
select_counter is 809
Heartbeat CPU 0 instructions: 53000001 cycles: 55223197 heartbeat IPC: 1.02171 cumulative IPC: 0.850845 (Simulation time: 0 hr 20 min 11 sec) 
select_counter is 796
Heartbeat CPU 0 instructions: 54000003 cycles: 56204707 heartbeat IPC: 1.01884 cumulative IPC: 0.854045 (Simulation time: 0 hr 20 min 32 sec) 
select_counter is 787
Heartbeat CPU 0 instructions: 55000000 cycles: 57169026 heartbeat IPC: 1.037 cumulative IPC: 0.857407 (Simulation time: 0 hr 20 min 52 sec) 
select_counter is 776
Heartbeat CPU 0 instructions: 56000000 cycles: 58146271 heartbeat IPC: 1.02328 cumulative IPC: 0.860439 (Simulation time: 0 hr 21 min 12 sec) 
select_counter is 768
Heartbeat CPU 0 instructions: 57000002 cycles: 59116704 heartbeat IPC: 1.03047 cumulative IPC: 0.86347 (Simulation time: 0 hr 21 min 32 sec) 
select_counter is 754
Heartbeat CPU 0 instructions: 58000003 cycles: 60091495 heartbeat IPC: 1.02586 cumulative IPC: 0.866327 (Simulation time: 0 hr 21 min 56 sec) 
select_counter is 740
Heartbeat CPU 0 instructions: 59000003 cycles: 61123931 heartbeat IPC: 0.968583 cumulative IPC: 0.868198 (Simulation time: 0 hr 22 min 19 sec) 
select_counter is 734
Heartbeat CPU 0 instructions: 60000000 cycles: 62331965 heartbeat IPC: 0.827789 cumulative IPC: 0.867351 (Simulation time: 0 hr 22 min 44 sec) 
select_counter is 781
Heartbeat CPU 0 instructions: 61000000 cycles: 63538862 heartbeat IPC: 0.828571 cumulative IPC: 0.866556 (Simulation time: 0 hr 23 min 9 sec) 
select_counter is 790
Heartbeat CPU 0 instructions: 62000003 cycles: 64762692 heartbeat IPC: 0.817109 cumulative IPC: 0.865548 (Simulation time: 0 hr 23 min 32 sec) 
select_counter is 777
Heartbeat CPU 0 instructions: 63000001 cycles: 65993336 heartbeat IPC: 0.812581 cumulative IPC: 0.864485 (Simulation time: 0 hr 23 min 54 sec) 
select_counter is 815
Heartbeat CPU 0 instructions: 64000000 cycles: 67315424 heartbeat IPC: 0.756379 cumulative IPC: 0.862203 (Simulation time: 0 hr 24 min 17 sec) 
select_counter is 818
Heartbeat CPU 0 instructions: 65000001 cycles: 68519864 heartbeat IPC: 0.830262 cumulative IPC: 0.861601 (Simulation time: 0 hr 24 min 40 sec) 
select_counter is 814
Heartbeat CPU 0 instructions: 66000003 cycles: 69721950 heartbeat IPC: 0.831889 cumulative IPC: 0.861051 (Simulation time: 0 hr 25 min 4 sec) 
select_counter is 798
Heartbeat CPU 0 instructions: 67000000 cycles: 70933348 heartbeat IPC: 0.82549 cumulative IPC: 0.860401 (Simulation time: 0 hr 25 min 29 sec) 
select_counter is 791
Heartbeat CPU 0 instructions: 68000000 cycles: 72247319 heartbeat IPC: 0.761052 cumulative IPC: 0.858469 (Simulation time: 0 hr 25 min 52 sec) 
select_counter is 814
Heartbeat CPU 0 instructions: 69000000 cycles: 73444017 heartbeat IPC: 0.835633 cumulative IPC: 0.858071 (Simulation time: 0 hr 26 min 16 sec) 
select_counter is 819
Heartbeat CPU 0 instructions: 70000002 cycles: 74646277 heartbeat IPC: 0.831769 cumulative IPC: 0.857619 (Simulation time: 0 hr 26 min 39 sec) 
select_counter is 802
Heartbeat CPU 0 instructions: 71000003 cycles: 75853153 heartbeat IPC: 0.828586 cumulative IPC: 0.857127 (Simulation time: 0 hr 27 min 4 sec) 
select_counter is 790
Heartbeat CPU 0 instructions: 72000000 cycles: 77061182 heartbeat IPC: 0.827792 cumulative IPC: 0.856637 (Simulation time: 0 hr 27 min 28 sec) 
select_counter is 794
Heartbeat CPU 0 instructions: 73000002 cycles: 78364682 heartbeat IPC: 0.767167 cumulative IPC: 0.855055 (Simulation time: 0 hr 27 min 50 sec) 
select_counter is 806
Heartbeat CPU 0 instructions: 74000000 cycles: 79564171 heartbeat IPC: 0.833687 cumulative IPC: 0.854712 (Simulation time: 0 hr 28 min 16 sec) 
select_counter is 804
Heartbeat CPU 0 instructions: 75000001 cycles: 80765560 heartbeat IPC: 0.832371 cumulative IPC: 0.85436 (Simulation time: 0 hr 28 min 40 sec) 
select_counter is 783
Heartbeat CPU 0 instructions: 76000000 cycles: 81974857 heartbeat IPC: 0.826926 cumulative IPC: 0.85393 (Simulation time: 0 hr 29 min 4 sec) 
select_counter is 772
Heartbeat CPU 0 instructions: 77000001 cycles: 83231960 heartbeat IPC: 0.795481 cumulative IPC: 0.852995 (Simulation time: 0 hr 29 min 31 sec) 
select_counter is 795
Heartbeat CPU 0 instructions: 78000003 cycles: 84402626 heartbeat IPC: 0.854216 cumulative IPC: 0.853013 (Simulation time: 0 hr 29 min 48 sec) 
select_counter is 790
Heartbeat CPU 0 instructions: 79000000 cycles: 85321647 heartbeat IPC: 1.08811 cumulative IPC: 0.855692 (Simulation time: 0 hr 30 min 7 sec) 
select_counter is 799
Heartbeat CPU 0 instructions: 80000000 cycles: 86225099 heartbeat IPC: 1.10687 cumulative IPC: 0.858475 (Simulation time: 0 hr 30 min 25 sec) 
select_counter is 796
Heartbeat CPU 0 instructions: 81000000 cycles: 87071171 heartbeat IPC: 1.18193 cumulative IPC: 0.861797 (Simulation time: 0 hr 30 min 43 sec) 
select_counter is 789
Heartbeat CPU 0 instructions: 82000001 cycles: 87963224 heartbeat IPC: 1.12101 cumulative IPC: 0.864574 (Simulation time: 0 hr 31 min 3 sec) 
select_counter is 787
Heartbeat CPU 0 instructions: 83000000 cycles: 88887295 heartbeat IPC: 1.08217 cumulative IPC: 0.866962 (Simulation time: 0 hr 31 min 22 sec) 
select_counter is 779
Heartbeat CPU 0 instructions: 84000000 cycles: 89804309 heartbeat IPC: 1.0905 cumulative IPC: 0.86937 (Simulation time: 0 hr 31 min 39 sec) 
select_counter is 796
Heartbeat CPU 0 instructions: 85000002 cycles: 90740089 heartbeat IPC: 1.06863 cumulative IPC: 0.871537 (Simulation time: 0 hr 32 min 2 sec) 
select_counter is 809
Heartbeat CPU 0 instructions: 86000002 cycles: 91669554 heartbeat IPC: 1.07589 cumulative IPC: 0.87372 (Simulation time: 0 hr 32 min 24 sec) 
select_counter is 817
Heartbeat CPU 0 instructions: 87000002 cycles: 92599664 heartbeat IPC: 1.07514 cumulative IPC: 0.875851 (Simulation time: 0 hr 32 min 51 sec) 
select_counter is 820
Heartbeat CPU 0 instructions: 88000000 cycles: 93648182 heartbeat IPC: 0.953725 cumulative IPC: 0.876769 (Simulation time: 0 hr 33 min 18 sec) 
select_counter is 823
Heartbeat CPU 0 instructions: 89000002 cycles: 94738537 heartbeat IPC: 0.917134 cumulative IPC: 0.877258 (Simulation time: 0 hr 33 min 43 sec) 
select_counter is 824
Heartbeat CPU 0 instructions: 90000001 cycles: 95826162 heartbeat IPC: 0.919434 cumulative IPC: 0.877761 (Simulation time: 0 hr 34 min 11 sec) 
select_counter is 823
Heartbeat CPU 0 instructions: 91000001 cycles: 96920714 heartbeat IPC: 0.913616 cumulative IPC: 0.878186 (Simulation time: 0 hr 34 min 35 sec) 
select_counter is 831
Heartbeat CPU 0 instructions: 92000000 cycles: 98005135 heartbeat IPC: 0.92215 cumulative IPC: 0.878697 (Simulation time: 0 hr 34 min 59 sec) 
select_counter is 838
Heartbeat CPU 0 instructions: 93000001 cycles: 99087391 heartbeat IPC: 0.923997 cumulative IPC: 0.879217 (Simulation time: 0 hr 35 min 22 sec) 
select_counter is 844
Heartbeat CPU 0 instructions: 94000001 cycles: 100168096 heartbeat IPC: 0.925322 cumulative IPC: 0.879739 (Simulation time: 0 hr 35 min 46 sec) 
select_counter is 845
Heartbeat CPU 0 instructions: 95000000 cycles: 101252010 heartbeat IPC: 0.922581 cumulative IPC: 0.880219 (Simulation time: 0 hr 36 min 9 sec) 
select_counter is 845
Heartbeat CPU 0 instructions: 96000000 cycles: 102331597 heartbeat IPC: 0.92628 cumulative IPC: 0.880729 (Simulation time: 0 hr 36 min 32 sec) 
select_counter is 848
Heartbeat CPU 0 instructions: 97000002 cycles: 103414221 heartbeat IPC: 0.923684 cumulative IPC: 0.8812 (Simulation time: 0 hr 36 min 52 sec) 
select_counter is 847
Heartbeat CPU 0 instructions: 98000002 cycles: 104496448 heartbeat IPC: 0.924021 cumulative IPC: 0.881664 (Simulation time: 0 hr 37 min 13 sec) 
select_counter is 846
Heartbeat CPU 0 instructions: 99000000 cycles: 105577599 heartbeat IPC: 0.924938 cumulative IPC: 0.882128 (Simulation time: 0 hr 37 min 32 sec) 
select_counter is 846
Heartbeat CPU 0 instructions: 100000000 cycles: 106662745 heartbeat IPC: 0.921535 cumulative IPC: 0.882547 (Simulation time: 0 hr 37 min 52 sec) 
select_counter is 846
Heartbeat CPU 0 instructions: 101000000 cycles: 107749725 heartbeat IPC: 0.91998 cumulative IPC: 0.882942 (Simulation time: 0 hr 38 min 11 sec) 
select_counter is 845
Heartbeat CPU 0 instructions: 102000000 cycles: 108839206 heartbeat IPC: 0.917868 cumulative IPC: 0.883307 (Simulation time: 0 hr 38 min 30 sec) 
select_counter is 845
Heartbeat CPU 0 instructions: 103000002 cycles: 109928179 heartbeat IPC: 0.918298 cumulative IPC: 0.883669 (Simulation time: 0 hr 38 min 49 sec) 
select_counter is 845
Heartbeat CPU 0 instructions: 104000000 cycles: 111016589 heartbeat IPC: 0.91877 cumulative IPC: 0.884028 (Simulation time: 0 hr 39 min 7 sec) 
select_counter is 846
Heartbeat CPU 0 instructions: 105000003 cycles: 112110513 heartbeat IPC: 0.914143 cumulative IPC: 0.884335 (Simulation time: 0 hr 39 min 26 sec) 
select_counter is 846
Heartbeat CPU 0 instructions: 106000002 cycles: 113206700 heartbeat IPC: 0.912252 cumulative IPC: 0.884617 (Simulation time: 0 hr 39 min 47 sec) 
select_counter is 847
Heartbeat CPU 0 instructions: 107000001 cycles: 114290316 heartbeat IPC: 0.922835 cumulative IPC: 0.884995 (Simulation time: 0 hr 40 min 7 sec) 
select_counter is 845
Heartbeat CPU 0 instructions: 108000000 cycles: 115384250 heartbeat IPC: 0.914131 cumulative IPC: 0.885283 (Simulation time: 0 hr 40 min 24 sec) 
select_counter is 845
Heartbeat CPU 0 instructions: 109000001 cycles: 116479099 heartbeat IPC: 0.913369 cumulative IPC: 0.885558 (Simulation time: 0 hr 40 min 39 sec) 
select_counter is 844
Heartbeat CPU 0 instructions: 110000002 cycles: 117578532 heartbeat IPC: 0.909561 cumulative IPC: 0.885792 (Simulation time: 0 hr 40 min 53 sec) 
select_counter is 843
Finished CPU 0 instructions: 100000000 cycles: 112893355 cummulative IPC: 0.885792 (Simulation time: 0 hr 40 min 53 sec) 

ChampSim completed all CPUs

Region of Interest Statistics

CPU 0 cummulative IPC: 0.885792 instructions: 100000000 cycles: 112893355
LLC TOTAL     ACCESS:    2346815  HIT:    2030463  MISS:     316352
LLC LOAD      ACCESS:     882483  HIT:     845376  MISS:      37107
LLC RFO       ACCESS:     180741  HIT:     111513  MISS:      69228
LLC PREFETCH  ACCESS:    1098736  HIT:     910603  MISS:     188133
LLC WRITEBACK ACCESS:     184855  HIT:     162971  MISS:      21884
Ship samples: 
20, 59, 84, 101, 143, 188, 208, 251, 279, 313, 345, 372, 384, 417, 469, 499, 519, 544, 578, 632, 643, 675, 711, 752, 778, 826, 835, 872, 916, 936, 979, 1013, 1048, 1059, 1116, 1133, 1159, 1208, 1217, 1263, 1303, 1331, 1372, 1379, 1411, 1465, 1478, 1521, 1540, 1592, 1615, 1632, 1688, 1720, 1747, 1783, 1815, 1848, 1876, 1910, 1921, 1957, 2015, 2036, 
Lime duel samples: 
13, 55, 74, 97, 134, 176, 212, 245, 270, 314, 351, 382, 409, 422, 479, 492, 524, 573, 584, 614, 659, 684, 728, 753, 769, 815, 840, 883, 905, 935, 969, 1019, 1050, 1078, 1114, 1147, 1183, 1200, 1230, 1256, 1291, 1321, 1370, 1404, 1424, 1451, 1495, 1518, 1566, 1588, 1601, 1638, 1686, 1700, 1728, 1763, 1820, 1841, 1875, 1896, 1951, 1965, 2000, 2019, 
Lime samples: 
13, 97, 212, 314, 409, 492, 584, 684, 769, 883, 969, 1078, 1183, 1256, 1370, 1451, 1566, 1638, 1728, 1841, 1951, 
Insertion Distribution: 
	LOAD 1245 0 0 0 0 0 470 59 
	RFO 230 0 0 0 0 0 1350 1438 
	PREF 0 1313 0 0 0 0 2693 4099 
	WRITEBACK 0 0 0 0 0 0 0 1318 
Total Prefetch Downgrades: 736
