
*** ChampSim Multicore Out-of-Order Simulator ***

Warmup Instructions: 10000000
Simulation Instructions: 100000000
Configuration: 2
Number of CPUs: 1
LLC sets: 2048
LLC ways: 16
Off-chip DRAM Channels: 1 Width: 64-bit Data Rate: 1600 MT/s

CPU 0 runs /datasets/cs240c-wi22-a00-public/data/Assignment2-gz/omnetpp_4B.trace.gz
CPU 0 L1D next line prefetcher
CPU 0 L2C IP-based stride prefetcher
Heartbeat CPU 0 instructions: 1000001 cycles: 566981 heartbeat IPC: 1.76373 cumulative IPC: 1.76373 (Simulation time: 0 hr 0 min 20 sec) 
select_counter is 1038
Heartbeat CPU 0 instructions: 2000001 cycles: 1135448 heartbeat IPC: 1.75912 cumulative IPC: 1.76142 (Simulation time: 0 hr 0 min 40 sec) 
select_counter is 951
Heartbeat CPU 0 instructions: 3000001 cycles: 1722470 heartbeat IPC: 1.70351 cumulative IPC: 1.74169 (Simulation time: 0 hr 1 min 2 sec) 
select_counter is 721
Heartbeat CPU 0 instructions: 4000000 cycles: 2291747 heartbeat IPC: 1.75661 cumulative IPC: 1.74539 (Simulation time: 0 hr 1 min 24 sec) 
select_counter is 623
Heartbeat CPU 0 instructions: 5000000 cycles: 2865867 heartbeat IPC: 1.7418 cumulative IPC: 1.74467 (Simulation time: 0 hr 1 min 45 sec) 
select_counter is 508
Heartbeat CPU 0 instructions: 6000000 cycles: 3442024 heartbeat IPC: 1.73564 cumulative IPC: 1.74316 (Simulation time: 0 hr 2 min 5 sec) 
select_counter is 403
Heartbeat CPU 0 instructions: 7000000 cycles: 4011313 heartbeat IPC: 1.75658 cumulative IPC: 1.74506 (Simulation time: 0 hr 2 min 25 sec) 
select_counter is 303
Heartbeat CPU 0 instructions: 8000000 cycles: 4564775 heartbeat IPC: 1.80681 cumulative IPC: 1.75255 (Simulation time: 0 hr 2 min 45 sec) 
select_counter is 106
Heartbeat CPU 0 instructions: 9000001 cycles: 5146866 heartbeat IPC: 1.71795 cumulative IPC: 1.74864 (Simulation time: 0 hr 3 min 6 sec) 
select_counter is 2028
Heartbeat CPU 0 instructions: 10000000 cycles: 5700806 heartbeat IPC: 1.80525 cumulative IPC: 1.75414 (Simulation time: 0 hr 3 min 27 sec) 
select_counter is 2000

Warmup complete CPU 0 instructions: 10000003 cycles: 5700807 (Simulation time: 0 hr 3 min 27 sec) 

Heartbeat CPU 0 instructions: 11000000 cycles: 8879933 heartbeat IPC: 0.314552 cumulative IPC: 0.314551 (Simulation time: 0 hr 3 min 54 sec) 
select_counter is 1945
Heartbeat CPU 0 instructions: 12000000 cycles: 10034935 heartbeat IPC: 0.865799 cumulative IPC: 0.461453 (Simulation time: 0 hr 4 min 13 sec) 
select_counter is 1947
Heartbeat CPU 0 instructions: 13000003 cycles: 11179707 heartbeat IPC: 0.873539 cumulative IPC: 0.547555 (Simulation time: 0 hr 4 min 30 sec) 
select_counter is 1943
Heartbeat CPU 0 instructions: 14000000 cycles: 12299971 heartbeat IPC: 0.892644 cumulative IPC: 0.606137 (Simulation time: 0 hr 4 min 49 sec) 
select_counter is 1944
Heartbeat CPU 0 instructions: 15000000 cycles: 13439169 heartbeat IPC: 0.877811 cumulative IPC: 0.646131 (Simulation time: 0 hr 5 min 9 sec) 
select_counter is 1940
Heartbeat CPU 0 instructions: 16000000 cycles: 16306358 heartbeat IPC: 0.348774 cumulative IPC: 0.565741 (Simulation time: 0 hr 5 min 34 sec) 
select_counter is 1880
Heartbeat CPU 0 instructions: 17000003 cycles: 19184488 heartbeat IPC: 0.347449 cumulative IPC: 0.519146 (Simulation time: 0 hr 6 min 1 sec) 
select_counter is 1827
Heartbeat CPU 0 instructions: 18000002 cycles: 21993598 heartbeat IPC: 0.355984 cumulative IPC: 0.491015 (Simulation time: 0 hr 6 min 25 sec) 
select_counter is 1771
Heartbeat CPU 0 instructions: 19000002 cycles: 24819110 heartbeat IPC: 0.353918 cumulative IPC: 0.470753 (Simulation time: 0 hr 6 min 50 sec) 
select_counter is 1757
Heartbeat CPU 0 instructions: 20000000 cycles: 28177505 heartbeat IPC: 0.297761 cumulative IPC: 0.444905 (Simulation time: 0 hr 7 min 17 sec) 
select_counter is 1643
Heartbeat CPU 0 instructions: 21000000 cycles: 31525195 heartbeat IPC: 0.298713 cumulative IPC: 0.425954 (Simulation time: 0 hr 7 min 42 sec) 
select_counter is 1555
Heartbeat CPU 0 instructions: 22000001 cycles: 34743263 heartbeat IPC: 0.310746 cumulative IPC: 0.413188 (Simulation time: 0 hr 8 min 9 sec) 
select_counter is 1477
Heartbeat CPU 0 instructions: 23000000 cycles: 37601767 heartbeat IPC: 0.349833 cumulative IPC: 0.407511 (Simulation time: 0 hr 8 min 32 sec) 
select_counter is 1404
Heartbeat CPU 0 instructions: 24000000 cycles: 40397331 heartbeat IPC: 0.35771 cumulative IPC: 0.403499 (Simulation time: 0 hr 8 min 56 sec) 
select_counter is 1378
Heartbeat CPU 0 instructions: 25000000 cycles: 43191958 heartbeat IPC: 0.35783 cumulative IPC: 0.400094 (Simulation time: 0 hr 9 min 19 sec) 
select_counter is 1348
Heartbeat CPU 0 instructions: 26000002 cycles: 45972941 heartbeat IPC: 0.359586 cumulative IPC: 0.397297 (Simulation time: 0 hr 9 min 41 sec) 
select_counter is 1293
Heartbeat CPU 0 instructions: 27000001 cycles: 48807274 heartbeat IPC: 0.352816 cumulative IPC: 0.394372 (Simulation time: 0 hr 10 min 6 sec) 
select_counter is 1238
Heartbeat CPU 0 instructions: 28000000 cycles: 51589006 heartbeat IPC: 0.359488 cumulative IPC: 0.392258 (Simulation time: 0 hr 10 min 31 sec) 
select_counter is 1187
Heartbeat CPU 0 instructions: 29000001 cycles: 54453744 heartbeat IPC: 0.349072 cumulative IPC: 0.38972 (Simulation time: 0 hr 10 min 57 sec) 
select_counter is 1125
Heartbeat CPU 0 instructions: 30000000 cycles: 57248814 heartbeat IPC: 0.357772 cumulative IPC: 0.387988 (Simulation time: 0 hr 11 min 19 sec) 
select_counter is 1106
Heartbeat CPU 0 instructions: 31000002 cycles: 60033490 heartbeat IPC: 0.359109 cumulative IPC: 0.386508 (Simulation time: 0 hr 11 min 41 sec) 
select_counter is 1095
Heartbeat CPU 0 instructions: 32000000 cycles: 62871711 heartbeat IPC: 0.352333 cumulative IPC: 0.384811 (Simulation time: 0 hr 12 min 2 sec) 
select_counter is 1061
Heartbeat CPU 0 instructions: 33000000 cycles: 66068894 heartbeat IPC: 0.312775 cumulative IPC: 0.380996 (Simulation time: 0 hr 12 min 24 sec) 
select_counter is 1026
Heartbeat CPU 0 instructions: 34000001 cycles: 69416453 heartbeat IPC: 0.298725 cumulative IPC: 0.376674 (Simulation time: 0 hr 12 min 46 sec) 
select_counter is 933
Heartbeat CPU 0 instructions: 35000001 cycles: 72479555 heartbeat IPC: 0.326466 cumulative IPC: 0.374371 (Simulation time: 0 hr 13 min 10 sec) 
select_counter is 864
Heartbeat CPU 0 instructions: 36000000 cycles: 75762170 heartbeat IPC: 0.304635 cumulative IPC: 0.371103 (Simulation time: 0 hr 13 min 35 sec) 
select_counter is 888
Heartbeat CPU 0 instructions: 37000001 cycles: 78574226 heartbeat IPC: 0.355612 cumulative IPC: 0.370505 (Simulation time: 0 hr 13 min 58 sec) 
select_counter is 865
Heartbeat CPU 0 instructions: 38000001 cycles: 81780850 heartbeat IPC: 0.311854 cumulative IPC: 0.368033 (Simulation time: 0 hr 14 min 28 sec) 
select_counter is 849
Heartbeat CPU 0 instructions: 39000001 cycles: 84312889 heartbeat IPC: 0.394939 cumulative IPC: 0.3689 (Simulation time: 0 hr 14 min 51 sec) 
select_counter is 831
Heartbeat CPU 0 instructions: 40000000 cycles: 85434888 heartbeat IPC: 0.891266 cumulative IPC: 0.376251 (Simulation time: 0 hr 15 min 10 sec) 
select_counter is 828
Heartbeat CPU 0 instructions: 41000001 cycles: 86561154 heartbeat IPC: 0.887891 cumulative IPC: 0.383377 (Simulation time: 0 hr 15 min 27 sec) 
select_counter is 831
Heartbeat CPU 0 instructions: 42000001 cycles: 87695292 heartbeat IPC: 0.881727 cumulative IPC: 0.39027 (Simulation time: 0 hr 15 min 48 sec) 
select_counter is 832
Heartbeat CPU 0 instructions: 43000002 cycles: 88911242 heartbeat IPC: 0.822403 cumulative IPC: 0.396585 (Simulation time: 0 hr 16 min 6 sec) 
select_counter is 829
Heartbeat CPU 0 instructions: 44000000 cycles: 91814589 heartbeat IPC: 0.344429 cumulative IPC: 0.394826 (Simulation time: 0 hr 16 min 29 sec) 
select_counter is 786
Heartbeat CPU 0 instructions: 45000000 cycles: 94705179 heartbeat IPC: 0.34595 cumulative IPC: 0.393239 (Simulation time: 0 hr 16 min 52 sec) 
select_counter is 763
Heartbeat CPU 0 instructions: 46000000 cycles: 98076312 heartbeat IPC: 0.296636 cumulative IPC: 0.389714 (Simulation time: 0 hr 17 min 17 sec) 
select_counter is 744
Heartbeat CPU 0 instructions: 47000000 cycles: 101442517 heartbeat IPC: 0.29707 cumulative IPC: 0.386456 (Simulation time: 0 hr 17 min 46 sec) 
select_counter is 695
Heartbeat CPU 0 instructions: 48000000 cycles: 104624614 heartbeat IPC: 0.314258 cumulative IPC: 0.384134 (Simulation time: 0 hr 18 min 9 sec) 
select_counter is 681
Heartbeat CPU 0 instructions: 49000000 cycles: 107541373 heartbeat IPC: 0.342846 cumulative IPC: 0.382951 (Simulation time: 0 hr 18 min 32 sec) 
select_counter is 685
Heartbeat CPU 0 instructions: 50000001 cycles: 110349011 heartbeat IPC: 0.356172 cumulative IPC: 0.382233 (Simulation time: 0 hr 18 min 55 sec) 
select_counter is 684
Heartbeat CPU 0 instructions: 51000003 cycles: 113168017 heartbeat IPC: 0.354736 cumulative IPC: 0.381512 (Simulation time: 0 hr 19 min 18 sec) 
select_counter is 678
Heartbeat CPU 0 instructions: 52000000 cycles: 115972043 heartbeat IPC: 0.356629 cumulative IPC: 0.380879 (Simulation time: 0 hr 19 min 40 sec) 
select_counter is 658
Heartbeat CPU 0 instructions: 53000003 cycles: 118790606 heartbeat IPC: 0.354792 cumulative IPC: 0.380229 (Simulation time: 0 hr 20 min 3 sec) 
select_counter is 641
Heartbeat CPU 0 instructions: 54000001 cycles: 121583673 heartbeat IPC: 0.358029 cumulative IPC: 0.379694 (Simulation time: 0 hr 20 min 24 sec) 
select_counter is 629
Heartbeat CPU 0 instructions: 55000001 cycles: 124534002 heartbeat IPC: 0.338945 cumulative IPC: 0.378682 (Simulation time: 0 hr 20 min 50 sec) 
select_counter is 584
Heartbeat CPU 0 instructions: 56000000 cycles: 127351731 heartbeat IPC: 0.354895 cumulative IPC: 0.378131 (Simulation time: 0 hr 21 min 12 sec) 
select_counter is 584
Heartbeat CPU 0 instructions: 57000003 cycles: 130140233 heartbeat IPC: 0.358617 cumulative IPC: 0.377694 (Simulation time: 0 hr 21 min 35 sec) 
select_counter is 610
Heartbeat CPU 0 instructions: 58000001 cycles: 133151913 heartbeat IPC: 0.33204 cumulative IPC: 0.376615 (Simulation time: 0 hr 22 min 0 sec) 
select_counter is 607
Heartbeat CPU 0 instructions: 59000001 cycles: 136474815 heartbeat IPC: 0.300942 cumulative IPC: 0.374692 (Simulation time: 0 hr 22 min 24 sec) 
select_counter is 587
Heartbeat CPU 0 instructions: 60000000 cycles: 139487562 heartbeat IPC: 0.331923 cumulative IPC: 0.373729 (Simulation time: 0 hr 22 min 48 sec) 
select_counter is 580
Heartbeat CPU 0 instructions: 61000001 cycles: 142577323 heartbeat IPC: 0.32365 cumulative IPC: 0.372599 (Simulation time: 0 hr 23 min 13 sec) 
select_counter is 529
Heartbeat CPU 0 instructions: 62000000 cycles: 145931045 heartbeat IPC: 0.298176 cumulative IPC: 0.370819 (Simulation time: 0 hr 23 min 37 sec) 
select_counter is 594
Heartbeat CPU 0 instructions: 63000001 cycles: 148782246 heartbeat IPC: 0.35073 cumulative IPC: 0.370418 (Simulation time: 0 hr 24 min 2 sec) 
select_counter is 604
Heartbeat CPU 0 instructions: 64000000 cycles: 151615062 heartbeat IPC: 0.353005 cumulative IPC: 0.37008 (Simulation time: 0 hr 24 min 25 sec) 
select_counter is 606
Heartbeat CPU 0 instructions: 65000001 cycles: 154432928 heartbeat IPC: 0.354879 cumulative IPC: 0.369792 (Simulation time: 0 hr 24 min 49 sec) 
select_counter is 608
Heartbeat CPU 0 instructions: 66000002 cycles: 158603082 heartbeat IPC: 0.2398 cumulative IPC: 0.366247 (Simulation time: 0 hr 25 min 18 sec) 
select_counter is 590
Heartbeat CPU 0 instructions: 67000001 cycles: 160270834 heartbeat IPC: 0.599609 cumulative IPC: 0.368765 (Simulation time: 0 hr 25 min 39 sec) 
select_counter is 595
Heartbeat CPU 0 instructions: 68000000 cycles: 161395249 heartbeat IPC: 0.88935 cumulative IPC: 0.372525 (Simulation time: 0 hr 25 min 58 sec) 
select_counter is 601
Heartbeat CPU 0 instructions: 69000003 cycles: 162537302 heartbeat IPC: 0.875619 cumulative IPC: 0.376188 (Simulation time: 0 hr 26 min 16 sec) 
select_counter is 597
Heartbeat CPU 0 instructions: 70000000 cycles: 163657408 heartbeat IPC: 0.89277 cumulative IPC: 0.379851 (Simulation time: 0 hr 26 min 35 sec) 
select_counter is 598
Heartbeat CPU 0 instructions: 71000001 cycles: 164832705 heartbeat IPC: 0.85085 cumulative IPC: 0.38333 (Simulation time: 0 hr 26 min 55 sec) 
select_counter is 594
Heartbeat CPU 0 instructions: 72000000 cycles: 168188923 heartbeat IPC: 0.297954 cumulative IPC: 0.381566 (Simulation time: 0 hr 27 min 18 sec) 
select_counter is 632
Heartbeat CPU 0 instructions: 73000000 cycles: 171606234 heartbeat IPC: 0.292628 cumulative IPC: 0.379734 (Simulation time: 0 hr 27 min 42 sec) 
select_counter is 634
Heartbeat CPU 0 instructions: 74000001 cycles: 174973435 heartbeat IPC: 0.296983 cumulative IPC: 0.378088 (Simulation time: 0 hr 28 min 9 sec) 
select_counter is 654
Heartbeat CPU 0 instructions: 75000001 cycles: 177903570 heartbeat IPC: 0.341281 cumulative IPC: 0.377462 (Simulation time: 0 hr 28 min 33 sec) 
select_counter is 636
Heartbeat CPU 0 instructions: 76000000 cycles: 180704086 heartbeat IPC: 0.357077 cumulative IPC: 0.377136 (Simulation time: 0 hr 28 min 55 sec) 
select_counter is 645
Heartbeat CPU 0 instructions: 77000000 cycles: 183537358 heartbeat IPC: 0.352949 cumulative IPC: 0.37675 (Simulation time: 0 hr 29 min 17 sec) 
select_counter is 662
Heartbeat CPU 0 instructions: 78000001 cycles: 186372989 heartbeat IPC: 0.352656 cumulative IPC: 0.376372 (Simulation time: 0 hr 29 min 40 sec) 
select_counter is 664
Heartbeat CPU 0 instructions: 79000001 cycles: 189195979 heartbeat IPC: 0.354234 cumulative IPC: 0.376032 (Simulation time: 0 hr 30 min 3 sec) 
select_counter is 666
Heartbeat CPU 0 instructions: 80000000 cycles: 192003178 heartbeat IPC: 0.356227 cumulative IPC: 0.375733 (Simulation time: 0 hr 30 min 26 sec) 
select_counter is 662
Heartbeat CPU 0 instructions: 81000002 cycles: 194896697 heartbeat IPC: 0.345601 cumulative IPC: 0.375272 (Simulation time: 0 hr 30 min 49 sec) 
select_counter is 616
Heartbeat CPU 0 instructions: 82000001 cycles: 197714680 heartbeat IPC: 0.354863 cumulative IPC: 0.374973 (Simulation time: 0 hr 31 min 13 sec) 
select_counter is 596
Heartbeat CPU 0 instructions: 83000002 cycles: 200574992 heartbeat IPC: 0.349613 cumulative IPC: 0.374601 (Simulation time: 0 hr 31 min 39 sec) 
select_counter is 615
Heartbeat CPU 0 instructions: 84000000 cycles: 203452853 heartbeat IPC: 0.34748 cumulative IPC: 0.374206 (Simulation time: 0 hr 32 min 1 sec) 
select_counter is 625
Heartbeat CPU 0 instructions: 85000002 cycles: 206800241 heartbeat IPC: 0.298741 cumulative IPC: 0.37295 (Simulation time: 0 hr 32 min 26 sec) 
select_counter is 634
Heartbeat CPU 0 instructions: 86000002 cycles: 210135499 heartbeat IPC: 0.299827 cumulative IPC: 0.371757 (Simulation time: 0 hr 32 min 50 sec) 
select_counter is 635
Heartbeat CPU 0 instructions: 87000000 cycles: 213186386 heartbeat IPC: 0.327773 cumulative IPC: 0.37111 (Simulation time: 0 hr 33 min 16 sec) 
select_counter is 618
Heartbeat CPU 0 instructions: 88000000 cycles: 216208923 heartbeat IPC: 0.330848 cumulative IPC: 0.370532 (Simulation time: 0 hr 33 min 42 sec) 
select_counter is 682
Heartbeat CPU 0 instructions: 89000002 cycles: 219311498 heartbeat IPC: 0.322314 cumulative IPC: 0.369832 (Simulation time: 0 hr 34 min 6 sec) 
select_counter is 729
Heartbeat CPU 0 instructions: 90000001 cycles: 222119393 heartbeat IPC: 0.356138 cumulative IPC: 0.369654 (Simulation time: 0 hr 34 min 29 sec) 
select_counter is 761
Heartbeat CPU 0 instructions: 91000001 cycles: 224958283 heartbeat IPC: 0.35225 cumulative IPC: 0.369429 (Simulation time: 0 hr 34 min 51 sec) 
select_counter is 776
Heartbeat CPU 0 instructions: 92000000 cycles: 227890051 heartbeat IPC: 0.341091 cumulative IPC: 0.369055 (Simulation time: 0 hr 35 min 13 sec) 
select_counter is 767
Heartbeat CPU 0 instructions: 93000000 cycles: 230731034 heartbeat IPC: 0.351991 cumulative IPC: 0.368839 (Simulation time: 0 hr 35 min 36 sec) 
select_counter is 776
Heartbeat CPU 0 instructions: 94000000 cycles: 235288605 heartbeat IPC: 0.219415 cumulative IPC: 0.365873 (Simulation time: 0 hr 36 min 2 sec) 
select_counter is 824
Heartbeat CPU 0 instructions: 95000000 cycles: 236472625 heartbeat IPC: 0.84458 cumulative IPC: 0.368329 (Simulation time: 0 hr 36 min 18 sec) 
select_counter is 832
Heartbeat CPU 0 instructions: 96000000 cycles: 237615608 heartbeat IPC: 0.874904 cumulative IPC: 0.370826 (Simulation time: 0 hr 36 min 34 sec) 
select_counter is 832
Heartbeat CPU 0 instructions: 97000002 cycles: 238734318 heartbeat IPC: 0.893888 cumulative IPC: 0.373337 (Simulation time: 0 hr 36 min 50 sec) 
select_counter is 831
Heartbeat CPU 0 instructions: 98000001 cycles: 239876257 heartbeat IPC: 0.875703 cumulative IPC: 0.375787 (Simulation time: 0 hr 37 min 5 sec) 
select_counter is 828
Heartbeat CPU 0 instructions: 99000002 cycles: 241762199 heartbeat IPC: 0.53024 cumulative IPC: 0.377021 (Simulation time: 0 hr 37 min 25 sec) 
select_counter is 818
Heartbeat CPU 0 instructions: 100000000 cycles: 245186385 heartbeat IPC: 0.29204 cumulative IPC: 0.375805 (Simulation time: 0 hr 37 min 45 sec) 
select_counter is 811
Heartbeat CPU 0 instructions: 101000002 cycles: 248313263 heartbeat IPC: 0.319808 cumulative IPC: 0.375084 (Simulation time: 0 hr 38 min 7 sec) 
select_counter is 794
Heartbeat CPU 0 instructions: 102000001 cycles: 251321798 heartbeat IPC: 0.332387 cumulative IPC: 0.374561 (Simulation time: 0 hr 38 min 26 sec) 
select_counter is 848
Heartbeat CPU 0 instructions: 103000000 cycles: 254147859 heartbeat IPC: 0.353849 cumulative IPC: 0.374325 (Simulation time: 0 hr 38 min 45 sec) 
select_counter is 880
Heartbeat CPU 0 instructions: 104000000 cycles: 256992811 heartbeat IPC: 0.3515 cumulative IPC: 0.374067 (Simulation time: 0 hr 39 min 2 sec) 
select_counter is 901
Heartbeat CPU 0 instructions: 105000001 cycles: 259820213 heartbeat IPC: 0.353682 cumulative IPC: 0.37384 (Simulation time: 0 hr 39 min 21 sec) 
select_counter is 914
Heartbeat CPU 0 instructions: 106000000 cycles: 262776531 heartbeat IPC: 0.338258 cumulative IPC: 0.373431 (Simulation time: 0 hr 39 min 41 sec) 
select_counter is 870
Heartbeat CPU 0 instructions: 107000002 cycles: 265626599 heartbeat IPC: 0.35087 cumulative IPC: 0.373183 (Simulation time: 0 hr 39 min 59 sec) 
select_counter is 865
Heartbeat CPU 0 instructions: 108000000 cycles: 268453509 heartbeat IPC: 0.353742 cumulative IPC: 0.372974 (Simulation time: 0 hr 40 min 15 sec) 
select_counter is 895
Heartbeat CPU 0 instructions: 109000002 cycles: 271266818 heartbeat IPC: 0.355454 cumulative IPC: 0.372789 (Simulation time: 0 hr 40 min 31 sec) 
select_counter is 909
Heartbeat CPU 0 instructions: 110000001 cycles: 274126912 heartbeat IPC: 0.349639 cumulative IPC: 0.372542 (Simulation time: 0 hr 40 min 47 sec) 
select_counter is 912
Finished CPU 0 instructions: 100000001 cycles: 268426107 cummulative IPC: 0.372542 (Simulation time: 0 hr 40 min 47 sec) 

ChampSim completed all CPUs

Region of Interest Statistics

CPU 0 cummulative IPC: 0.372542 instructions: 100000001 cycles: 268426107
LLC TOTAL     ACCESS:    4666112  HIT:    2262363  MISS:    2403749
LLC LOAD      ACCESS:    2184064  HIT:    1988997  MISS:     195067
LLC RFO       ACCESS:      24956  HIT:      10881  MISS:      14075
LLC PREFETCH  ACCESS:    2376723  HIT:     228864  MISS:    2147859
LLC WRITEBACK ACCESS:      80369  HIT:      33621  MISS:      46748
Ship samples: 
17, 59, 78, 105, 147, 177, 211, 252, 259, 303, 351, 355, 392, 433, 468, 505, 522, 559, 587, 637, 651, 692, 722, 744, 793, 806, 859, 877, 925, 957, 985, 996, 1029, 1079, 1114, 1128, 1162, 1211, 1230, 1268, 1304, 1313, 1369, 1407, 1410, 1464, 1492, 1516, 1563, 1579, 1618, 1658, 1679, 1703, 1737, 1785, 1806, 1838, 1881, 1909, 1942, 1969, 2001, 2043, 
Lime duel samples: 
0, 47, 74, 118, 133, 179, 214, 227, 266, 296, 336, 356, 405, 436, 473, 507, 517, 565, 600, 632, 670, 687, 734, 753, 790, 823, 856, 873, 900, 958, 977, 1014, 1035, 1084, 1117, 1141, 1161, 1190, 1243, 1265, 1285, 1324, 1345, 1381, 1431, 1456, 1479, 1508, 1553, 1578, 1616, 1652, 1689, 1717, 1729, 1773, 1813, 1850, 1875, 1893, 1930, 1965, 1994, 2045, 
Lime samples: 
0, 118, 214, 296, 405, 507, 600, 687, 790, 873, 977, 1084, 1161, 1265, 1345, 1456, 1553, 1652, 1729, 1850, 1930, 
Insertion Distribution: 
	LOAD 2212 0 0 0 0 0 4361 4635 
	RFO 344 0 0 0 0 0 433 425 
	PREF 0 327 0 0 0 0 7459 170884 
	WRITEBACK 0 0 0 0 0 0 0 2080 
Total Prefetch Downgrades: 568
