
*** ChampSim Multicore Out-of-Order Simulator ***

Warmup Instructions: 10000000
Simulation Instructions: 100000000
Configuration: 2
Number of CPUs: 1
LLC sets: 2048
LLC ways: 16
Off-chip DRAM Channels: 1 Width: 64-bit Data Rate: 1600 MT/s

CPU 0 runs /datasets/cs240c-wi22-a00-public/data/Assignment2-gz/perlbench_135B.trace.gz
CPU 0 L1D next line prefetcher
CPU 0 L2C IP-based stride prefetcher
Heartbeat CPU 0 instructions: 1000000 cycles: 600048 heartbeat IPC: 1.66653 cumulative IPC: 1.66653 (Simulation time: 0 hr 0 min 31 sec) 
select_counter is 1022
Heartbeat CPU 0 instructions: 2000000 cycles: 1209326 heartbeat IPC: 1.64129 cumulative IPC: 1.65381 (Simulation time: 0 hr 1 min 2 sec) 
select_counter is 970
Heartbeat CPU 0 instructions: 3000000 cycles: 1832884 heartbeat IPC: 1.6037 cumulative IPC: 1.63676 (Simulation time: 0 hr 1 min 31 sec) 
select_counter is 950
Heartbeat CPU 0 instructions: 4000000 cycles: 2492735 heartbeat IPC: 1.51549 cumulative IPC: 1.60466 (Simulation time: 0 hr 1 min 59 sec) 
select_counter is 876
Heartbeat CPU 0 instructions: 5000001 cycles: 3079435 heartbeat IPC: 1.70445 cumulative IPC: 1.62367 (Simulation time: 0 hr 2 min 23 sec) 
select_counter is 850
Heartbeat CPU 0 instructions: 6000002 cycles: 3681884 heartbeat IPC: 1.65989 cumulative IPC: 1.6296 (Simulation time: 0 hr 2 min 48 sec) 
select_counter is 770
Heartbeat CPU 0 instructions: 7000001 cycles: 4282701 heartbeat IPC: 1.6644 cumulative IPC: 1.63448 (Simulation time: 0 hr 3 min 14 sec) 
select_counter is 670
Heartbeat CPU 0 instructions: 8000000 cycles: 4893193 heartbeat IPC: 1.63802 cumulative IPC: 1.63492 (Simulation time: 0 hr 3 min 39 sec) 
select_counter is 602
Heartbeat CPU 0 instructions: 9000001 cycles: 5534299 heartbeat IPC: 1.55981 cumulative IPC: 1.62622 (Simulation time: 0 hr 4 min 7 sec) 
select_counter is 547
Heartbeat CPU 0 instructions: 10000000 cycles: 6192993 heartbeat IPC: 1.51815 cumulative IPC: 1.61473 (Simulation time: 0 hr 4 min 35 sec) 
select_counter is 434

Warmup complete CPU 0 instructions: 10000004 cycles: 6192994 (Simulation time: 0 hr 4 min 35 sec) 

Heartbeat CPU 0 instructions: 11000003 cycles: 8936535 heartbeat IPC: 0.364493 cumulative IPC: 0.364492 (Simulation time: 0 hr 5 min 9 sec) 
select_counter is 427
Heartbeat CPU 0 instructions: 12000000 cycles: 11275123 heartbeat IPC: 0.427607 cumulative IPC: 0.393535 (Simulation time: 0 hr 5 min 45 sec) 
select_counter is 416
Heartbeat CPU 0 instructions: 13000000 cycles: 13827262 heartbeat IPC: 0.391828 cumulative IPC: 0.392964 (Simulation time: 0 hr 6 min 19 sec) 
select_counter is 385
Heartbeat CPU 0 instructions: 14000000 cycles: 16830935 heartbeat IPC: 0.332926 cumulative IPC: 0.376012 (Simulation time: 0 hr 6 min 47 sec) 
select_counter is 364
Heartbeat CPU 0 instructions: 15000003 cycles: 19508270 heartbeat IPC: 0.373507 cumulative IPC: 0.375508 (Simulation time: 0 hr 7 min 16 sec) 
select_counter is 319
Heartbeat CPU 0 instructions: 16000000 cycles: 22140305 heartbeat IPC: 0.379933 cumulative IPC: 0.376239 (Simulation time: 0 hr 7 min 48 sec) 
select_counter is 274
Heartbeat CPU 0 instructions: 17000000 cycles: 24841002 heartbeat IPC: 0.370275 cumulative IPC: 0.375375 (Simulation time: 0 hr 8 min 20 sec) 
select_counter is 232
Heartbeat CPU 0 instructions: 18000000 cycles: 27523045 heartbeat IPC: 0.37285 cumulative IPC: 0.375058 (Simulation time: 0 hr 8 min 50 sec) 
select_counter is 194
Heartbeat CPU 0 instructions: 19000003 cycles: 30154149 heartbeat IPC: 0.38007 cumulative IPC: 0.375608 (Simulation time: 0 hr 9 min 21 sec) 
select_counter is 158
Heartbeat CPU 0 instructions: 20000000 cycles: 32791585 heartbeat IPC: 0.379155 cumulative IPC: 0.37596 (Simulation time: 0 hr 9 min 52 sec) 
select_counter is 112
Heartbeat CPU 0 instructions: 21000000 cycles: 35416608 heartbeat IPC: 0.380949 cumulative IPC: 0.376408 (Simulation time: 0 hr 10 min 20 sec) 
select_counter is 84
Heartbeat CPU 0 instructions: 22000002 cycles: 38043599 heartbeat IPC: 0.380664 cumulative IPC: 0.376759 (Simulation time: 0 hr 10 min 49 sec) 
select_counter is 61
Heartbeat CPU 0 instructions: 23000003 cycles: 40701295 heartbeat IPC: 0.376266 cumulative IPC: 0.376721 (Simulation time: 0 hr 11 min 23 sec) 
select_counter is 47
Heartbeat CPU 0 instructions: 24000000 cycles: 42797033 heartbeat IPC: 0.477157 cumulative IPC: 0.382471 (Simulation time: 0 hr 11 min 53 sec) 
select_counter is 23
Heartbeat CPU 0 instructions: 25000000 cycles: 45404073 heartbeat IPC: 0.383577 cumulative IPC: 0.382545 (Simulation time: 0 hr 12 min 28 sec) 
select_counter is 6
Heartbeat CPU 0 instructions: 26000001 cycles: 47961425 heartbeat IPC: 0.39103 cumulative IPC: 0.383064 (Simulation time: 0 hr 12 min 57 sec) 
select_counter is 1988
Heartbeat CPU 0 instructions: 27000000 cycles: 50630010 heartbeat IPC: 0.37473 cumulative IPC: 0.382564 (Simulation time: 0 hr 13 min 27 sec) 
select_counter is 1956
Heartbeat CPU 0 instructions: 28000000 cycles: 53276552 heartbeat IPC: 0.377852 cumulative IPC: 0.382299 (Simulation time: 0 hr 13 min 58 sec) 
select_counter is 1921
Heartbeat CPU 0 instructions: 29000000 cycles: 55909538 heartbeat IPC: 0.379797 cumulative IPC: 0.382166 (Simulation time: 0 hr 14 min 29 sec) 
select_counter is 1887
Heartbeat CPU 0 instructions: 30000000 cycles: 58630850 heartbeat IPC: 0.36747 cumulative IPC: 0.381404 (Simulation time: 0 hr 15 min 0 sec) 
select_counter is 1846
Heartbeat CPU 0 instructions: 31000001 cycles: 61273309 heartbeat IPC: 0.378436 cumulative IPC: 0.381261 (Simulation time: 0 hr 15 min 30 sec) 
select_counter is 1816
Heartbeat CPU 0 instructions: 32000000 cycles: 63929737 heartbeat IPC: 0.376445 cumulative IPC: 0.38104 (Simulation time: 0 hr 15 min 58 sec) 
select_counter is 1782
Heartbeat CPU 0 instructions: 33000000 cycles: 66563848 heartbeat IPC: 0.379635 cumulative IPC: 0.380978 (Simulation time: 0 hr 16 min 24 sec) 
select_counter is 1754
Heartbeat CPU 0 instructions: 34000001 cycles: 69176367 heartbeat IPC: 0.382773 cumulative IPC: 0.381053 (Simulation time: 0 hr 16 min 56 sec) 
select_counter is 1733
Heartbeat CPU 0 instructions: 35000003 cycles: 71829984 heartbeat IPC: 0.376845 cumulative IPC: 0.380883 (Simulation time: 0 hr 17 min 30 sec) 
select_counter is 1716
Heartbeat CPU 0 instructions: 36000000 cycles: 74130368 heartbeat IPC: 0.434709 cumulative IPC: 0.382705 (Simulation time: 0 hr 18 min 4 sec) 
select_counter is 1685
Heartbeat CPU 0 instructions: 37000000 cycles: 76418706 heartbeat IPC: 0.436998 cumulative IPC: 0.384475 (Simulation time: 0 hr 18 min 37 sec) 
select_counter is 1677
Heartbeat CPU 0 instructions: 38000000 cycles: 78506970 heartbeat IPC: 0.478867 cumulative IPC: 0.3872 (Simulation time: 0 hr 19 min 8 sec) 
select_counter is 1651
Heartbeat CPU 0 instructions: 39000000 cycles: 80801641 heartbeat IPC: 0.435792 cumulative IPC: 0.388695 (Simulation time: 0 hr 19 min 41 sec) 
select_counter is 1646
Heartbeat CPU 0 instructions: 40000000 cycles: 82755024 heartbeat IPC: 0.511932 cumulative IPC: 0.391839 (Simulation time: 0 hr 20 min 10 sec) 
select_counter is 1647
Heartbeat CPU 0 instructions: 41000001 cycles: 84834169 heartbeat IPC: 0.480967 cumulative IPC: 0.394195 (Simulation time: 0 hr 20 min 38 sec) 
select_counter is 1646
Heartbeat CPU 0 instructions: 42000003 cycles: 87453781 heartbeat IPC: 0.381737 cumulative IPC: 0.393794 (Simulation time: 0 hr 21 min 9 sec) 
select_counter is 1571
Heartbeat CPU 0 instructions: 43000001 cycles: 90016885 heartbeat IPC: 0.390151 cumulative IPC: 0.393682 (Simulation time: 0 hr 21 min 45 sec) 
select_counter is 1562
Heartbeat CPU 0 instructions: 44000000 cycles: 92310940 heartbeat IPC: 0.435909 cumulative IPC: 0.394807 (Simulation time: 0 hr 22 min 21 sec) 
select_counter is 1555
Heartbeat CPU 0 instructions: 45000003 cycles: 94946387 heartbeat IPC: 0.379443 cumulative IPC: 0.394351 (Simulation time: 0 hr 22 min 53 sec) 
select_counter is 1507
Heartbeat CPU 0 instructions: 46000003 cycles: 97625897 heartbeat IPC: 0.373203 cumulative IPC: 0.393731 (Simulation time: 0 hr 23 min 24 sec) 
select_counter is 1472
Heartbeat CPU 0 instructions: 47000000 cycles: 100261728 heartbeat IPC: 0.379386 cumulative IPC: 0.393329 (Simulation time: 0 hr 23 min 54 sec) 
select_counter is 1432
Heartbeat CPU 0 instructions: 48000000 cycles: 102883550 heartbeat IPC: 0.381414 cumulative IPC: 0.393006 (Simulation time: 0 hr 24 min 26 sec) 
select_counter is 1400
Heartbeat CPU 0 instructions: 49000000 cycles: 105562407 heartbeat IPC: 0.373294 cumulative IPC: 0.392475 (Simulation time: 0 hr 24 min 55 sec) 
select_counter is 1359
Heartbeat CPU 0 instructions: 50000001 cycles: 108195814 heartbeat IPC: 0.379737 cumulative IPC: 0.392146 (Simulation time: 0 hr 25 min 26 sec) 
select_counter is 1327
Heartbeat CPU 0 instructions: 51000000 cycles: 110822647 heartbeat IPC: 0.380686 cumulative IPC: 0.391858 (Simulation time: 0 hr 25 min 57 sec) 
select_counter is 1298
Heartbeat CPU 0 instructions: 52000000 cycles: 113441894 heartbeat IPC: 0.381789 cumulative IPC: 0.391612 (Simulation time: 0 hr 26 min 31 sec) 
select_counter is 1272
Heartbeat CPU 0 instructions: 53000000 cycles: 116030502 heartbeat IPC: 0.386308 cumulative IPC: 0.391487 (Simulation time: 0 hr 27 min 3 sec) 
select_counter is 1253
Heartbeat CPU 0 instructions: 54000001 cycles: 118675886 heartbeat IPC: 0.378017 cumulative IPC: 0.391171 (Simulation time: 0 hr 27 min 37 sec) 
select_counter is 1221
Heartbeat CPU 0 instructions: 55000001 cycles: 121123093 heartbeat IPC: 0.408629 cumulative IPC: 0.391542 (Simulation time: 0 hr 28 min 10 sec) 
select_counter is 1212
Heartbeat CPU 0 instructions: 56000000 cycles: 123248725 heartbeat IPC: 0.470448 cumulative IPC: 0.392975 (Simulation time: 0 hr 28 min 39 sec) 
select_counter is 1195
Heartbeat CPU 0 instructions: 57000000 cycles: 125450281 heartbeat IPC: 0.454224 cumulative IPC: 0.394106 (Simulation time: 0 hr 29 min 6 sec) 
select_counter is 1192
Heartbeat CPU 0 instructions: 58000002 cycles: 127398131 heartbeat IPC: 0.513388 cumulative IPC: 0.396023 (Simulation time: 0 hr 29 min 32 sec) 
select_counter is 1192
Heartbeat CPU 0 instructions: 59000003 cycles: 129520576 heartbeat IPC: 0.471155 cumulative IPC: 0.397316 (Simulation time: 0 hr 29 min 59 sec) 
select_counter is 1168
Heartbeat CPU 0 instructions: 60000000 cycles: 132461541 heartbeat IPC: 0.340023 cumulative IPC: 0.395981 (Simulation time: 0 hr 30 min 29 sec) 
select_counter is 1096
Heartbeat CPU 0 instructions: 61000000 cycles: 134876702 heartbeat IPC: 0.414051 cumulative IPC: 0.396321 (Simulation time: 0 hr 30 min 58 sec) 
select_counter is 1061
Heartbeat CPU 0 instructions: 62000001 cycles: 137658044 heartbeat IPC: 0.359539 cumulative IPC: 0.395542 (Simulation time: 0 hr 31 min 29 sec) 
select_counter is 1022
Heartbeat CPU 0 instructions: 63000000 cycles: 140575942 heartbeat IPC: 0.342712 cumulative IPC: 0.394395 (Simulation time: 0 hr 31 min 59 sec) 
select_counter is 977
Heartbeat CPU 0 instructions: 64000000 cycles: 143474315 heartbeat IPC: 0.345021 cumulative IPC: 0.393353 (Simulation time: 0 hr 32 min 27 sec) 
select_counter is 889
Heartbeat CPU 0 instructions: 65000001 cycles: 146351284 heartbeat IPC: 0.347588 cumulative IPC: 0.392413 (Simulation time: 0 hr 32 min 57 sec) 
select_counter is 814
Heartbeat CPU 0 instructions: 66000001 cycles: 149208633 heartbeat IPC: 0.349975 cumulative IPC: 0.391566 (Simulation time: 0 hr 33 min 27 sec) 
select_counter is 714
Heartbeat CPU 0 instructions: 67000001 cycles: 151941342 heartbeat IPC: 0.365937 cumulative IPC: 0.391085 (Simulation time: 0 hr 33 min 58 sec) 
select_counter is 649
Heartbeat CPU 0 instructions: 68000000 cycles: 154677695 heartbeat IPC: 0.36545 cumulative IPC: 0.390613 (Simulation time: 0 hr 34 min 28 sec) 
select_counter is 603
Heartbeat CPU 0 instructions: 69000002 cycles: 157616178 heartbeat IPC: 0.340312 cumulative IPC: 0.389636 (Simulation time: 0 hr 34 min 59 sec) 
select_counter is 521
Heartbeat CPU 0 instructions: 70000003 cycles: 159422006 heartbeat IPC: 0.553763 cumulative IPC: 0.391571 (Simulation time: 0 hr 35 min 23 sec) 
select_counter is 496
Heartbeat CPU 0 instructions: 71000000 cycles: 161341936 heartbeat IPC: 0.520851 cumulative IPC: 0.393171 (Simulation time: 0 hr 35 min 46 sec) 
select_counter is 496
Heartbeat CPU 0 instructions: 72000000 cycles: 163329392 heartbeat IPC: 0.503156 cumulative IPC: 0.394562 (Simulation time: 0 hr 36 min 8 sec) 
select_counter is 490
Heartbeat CPU 0 instructions: 73000000 cycles: 165605870 heartbeat IPC: 0.439275 cumulative IPC: 0.3952 (Simulation time: 0 hr 36 min 35 sec) 
select_counter is 436
Heartbeat CPU 0 instructions: 74000000 cycles: 167524416 heartbeat IPC: 0.521228 cumulative IPC: 0.396699 (Simulation time: 0 hr 36 min 59 sec) 
select_counter is 436
Heartbeat CPU 0 instructions: 75000003 cycles: 169762983 heartbeat IPC: 0.446716 cumulative IPC: 0.397383 (Simulation time: 0 hr 37 min 23 sec) 
select_counter is 410
Heartbeat CPU 0 instructions: 76000000 cycles: 172509856 heartbeat IPC: 0.364049 cumulative IPC: 0.396833 (Simulation time: 0 hr 37 min 48 sec) 
select_counter is 340
Heartbeat CPU 0 instructions: 77000000 cycles: 175208121 heartbeat IPC: 0.370609 cumulative IPC: 0.396414 (Simulation time: 0 hr 38 min 13 sec) 
select_counter is 301
Heartbeat CPU 0 instructions: 78000000 cycles: 178159449 heartbeat IPC: 0.338831 cumulative IPC: 0.395426 (Simulation time: 0 hr 38 min 45 sec) 
select_counter is 231
Heartbeat CPU 0 instructions: 79000000 cycles: 180017641 heartbeat IPC: 0.538158 cumulative IPC: 0.396952 (Simulation time: 0 hr 39 min 6 sec) 
select_counter is 208
Heartbeat CPU 0 instructions: 80000000 cycles: 181805903 heartbeat IPC: 0.559202 cumulative IPC: 0.398604 (Simulation time: 0 hr 39 min 23 sec) 
select_counter is 197
Heartbeat CPU 0 instructions: 81000000 cycles: 183727299 heartbeat IPC: 0.520455 cumulative IPC: 0.399923 (Simulation time: 0 hr 39 min 42 sec) 
select_counter is 197
Heartbeat CPU 0 instructions: 82000000 cycles: 185644838 heartbeat IPC: 0.521502 cumulative IPC: 0.401222 (Simulation time: 0 hr 40 min 2 sec) 
select_counter is 196
Heartbeat CPU 0 instructions: 83000000 cycles: 187979612 heartbeat IPC: 0.428307 cumulative IPC: 0.40157 (Simulation time: 0 hr 40 min 23 sec) 
select_counter is 161
Heartbeat CPU 0 instructions: 84000000 cycles: 189932772 heartbeat IPC: 0.511991 cumulative IPC: 0.402743 (Simulation time: 0 hr 40 min 40 sec) 
select_counter is 141
Heartbeat CPU 0 instructions: 85000000 cycles: 191853787 heartbeat IPC: 0.520558 cumulative IPC: 0.403962 (Simulation time: 0 hr 40 min 55 sec) 
select_counter is 139
Heartbeat CPU 0 instructions: 86000002 cycles: 193772316 heartbeat IPC: 0.521234 cumulative IPC: 0.405162 (Simulation time: 0 hr 41 min 9 sec) 
select_counter is 137
Heartbeat CPU 0 instructions: 87000003 cycles: 195941892 heartbeat IPC: 0.46092 cumulative IPC: 0.405799 (Simulation time: 0 hr 41 min 25 sec) 
select_counter is 119
Heartbeat CPU 0 instructions: 88000000 cycles: 198717135 heartbeat IPC: 0.360328 cumulative IPC: 0.405144 (Simulation time: 0 hr 41 min 42 sec) 
select_counter is 46
Heartbeat CPU 0 instructions: 89000003 cycles: 201285280 heartbeat IPC: 0.389387 cumulative IPC: 0.404937 (Simulation time: 0 hr 42 min 0 sec) 
select_counter is 20
Heartbeat CPU 0 instructions: 90000001 cycles: 204181420 heartbeat IPC: 0.345286 cumulative IPC: 0.404064 (Simulation time: 0 hr 42 min 18 sec) 
select_counter is 2014
Heartbeat CPU 0 instructions: 91000000 cycles: 206669584 heartbeat IPC: 0.401902 cumulative IPC: 0.404037 (Simulation time: 0 hr 42 min 36 sec) 
select_counter is 1967
Heartbeat CPU 0 instructions: 92000000 cycles: 209128778 heartbeat IPC: 0.406637 cumulative IPC: 0.404069 (Simulation time: 0 hr 42 min 52 sec) 
select_counter is 1917
Heartbeat CPU 0 instructions: 93000000 cycles: 211825868 heartbeat IPC: 0.37077 cumulative IPC: 0.403632 (Simulation time: 0 hr 43 min 8 sec) 
select_counter is 1854
Heartbeat CPU 0 instructions: 94000001 cycles: 214492375 heartbeat IPC: 0.375023 cumulative IPC: 0.403266 (Simulation time: 0 hr 43 min 25 sec) 
select_counter is 1811
Heartbeat CPU 0 instructions: 95000000 cycles: 217337122 heartbeat IPC: 0.351525 cumulative IPC: 0.402569 (Simulation time: 0 hr 43 min 41 sec) 
select_counter is 1774
Heartbeat CPU 0 instructions: 96000000 cycles: 220368859 heartbeat IPC: 0.329844 cumulative IPC: 0.401539 (Simulation time: 0 hr 43 min 56 sec) 
select_counter is 1685
Heartbeat CPU 0 instructions: 97000001 cycles: 223279533 heartbeat IPC: 0.343563 cumulative IPC: 0.400762 (Simulation time: 0 hr 44 min 10 sec) 
select_counter is 1641
Heartbeat CPU 0 instructions: 98000000 cycles: 225938910 heartbeat IPC: 0.376028 cumulative IPC: 0.400462 (Simulation time: 0 hr 44 min 22 sec) 
select_counter is 1619
Heartbeat CPU 0 instructions: 99000000 cycles: 228545352 heartbeat IPC: 0.383665 cumulative IPC: 0.400266 (Simulation time: 0 hr 44 min 35 sec) 
select_counter is 1590
Heartbeat CPU 0 instructions: 100000000 cycles: 231175660 heartbeat IPC: 0.380184 cumulative IPC: 0.400031 (Simulation time: 0 hr 44 min 46 sec) 
select_counter is 1559
Heartbeat CPU 0 instructions: 101000001 cycles: 233786114 heartbeat IPC: 0.383076 cumulative IPC: 0.399836 (Simulation time: 0 hr 44 min 57 sec) 
select_counter is 1540
Heartbeat CPU 0 instructions: 102000000 cycles: 236419416 heartbeat IPC: 0.379751 cumulative IPC: 0.399607 (Simulation time: 0 hr 45 min 6 sec) 
select_counter is 1516
Heartbeat CPU 0 instructions: 103000000 cycles: 239067110 heartbeat IPC: 0.377687 cumulative IPC: 0.399357 (Simulation time: 0 hr 45 min 15 sec) 
select_counter is 1480
Heartbeat CPU 0 instructions: 104000000 cycles: 241803368 heartbeat IPC: 0.365463 cumulative IPC: 0.398964 (Simulation time: 0 hr 45 min 23 sec) 
select_counter is 1451
Heartbeat CPU 0 instructions: 105000001 cycles: 244415041 heartbeat IPC: 0.382897 cumulative IPC: 0.398788 (Simulation time: 0 hr 45 min 31 sec) 
select_counter is 1435
Heartbeat CPU 0 instructions: 106000001 cycles: 247041415 heartbeat IPC: 0.380753 cumulative IPC: 0.398591 (Simulation time: 0 hr 45 min 38 sec) 
select_counter is 1413
Heartbeat CPU 0 instructions: 107000000 cycles: 249666647 heartbeat IPC: 0.380918 cumulative IPC: 0.3984 (Simulation time: 0 hr 45 min 45 sec) 
select_counter is 1393
Heartbeat CPU 0 instructions: 108000000 cycles: 252287450 heartbeat IPC: 0.381562 cumulative IPC: 0.398221 (Simulation time: 0 hr 45 min 51 sec) 
select_counter is 1381
Heartbeat CPU 0 instructions: 109000001 cycles: 254867579 heartbeat IPC: 0.387578 cumulative IPC: 0.398111 (Simulation time: 0 hr 45 min 56 sec) 
select_counter is 1367
Heartbeat CPU 0 instructions: 110000003 cycles: 257022111 heartbeat IPC: 0.464139 cumulative IPC: 0.398678 (Simulation time: 0 hr 46 min 0 sec) 
select_counter is 1356
Finished CPU 0 instructions: 100000003 cycles: 250829118 cummulative IPC: 0.398678 (Simulation time: 0 hr 46 min 0 sec) 

ChampSim completed all CPUs

Region of Interest Statistics

CPU 0 cummulative IPC: 0.398678 instructions: 100000003 cycles: 250829118
LLC TOTAL     ACCESS:     635539  HIT:     545264  MISS:      90275
LLC LOAD      ACCESS:     295076  HIT:     286527  MISS:       8549
LLC RFO       ACCESS:      30362  HIT:      26416  MISS:       3946
LLC PREFETCH  ACCESS:     206824  HIT:     131704  MISS:      75120
LLC WRITEBACK ACCESS:     103277  HIT:     100617  MISS:       2660
Ship samples: 
10, 53, 71, 124, 156, 176, 221, 236, 269, 317, 346, 368, 408, 441, 474, 483, 538, 557, 589, 619, 650, 696, 722, 761, 776, 804, 857, 869, 917, 938, 960, 995, 1030, 1084, 1114, 1149, 1155, 1196, 1241, 1268, 1307, 1315, 1358, 1381, 1416, 1459, 1500, 1507, 1543, 1590, 1607, 1638, 1672, 1727, 1751, 1762, 1805, 1830, 1870, 1918, 1946, 1983, 1993, 2041, 
Lime duel samples: 
8, 57, 89, 117, 137, 161, 206, 246, 273, 292, 325, 355, 387, 416, 473, 481, 531, 568, 577, 617, 649, 699, 711, 740, 799, 822, 834, 885, 913, 959, 976, 1005, 1051, 1072, 1107, 1127, 1156, 1205, 1237, 1253, 1281, 1337, 1364, 1385, 1411, 1455, 1480, 1527, 1538, 1568, 1601, 1651, 1674, 1714, 1729, 1780, 1810, 1829, 1883, 1899, 1942, 1970, 2006, 2018, 
Lime samples: 
8, 117, 206, 292, 387, 481, 577, 699, 799, 885, 976, 1072, 1156, 1253, 1364, 1455, 1538, 1651, 1729, 1829, 1942, 
Insertion Distribution: 
	LOAD 1481 0 0 0 0 0 5471 154 
	RFO 180 0 0 0 0 0 2319 340 
	PREF 0 166 0 0 0 0 11200 13350 
	WRITEBACK 0 0 0 0 0 0 0 685 
Total Prefetch Downgrades: 1644
