
*** ChampSim Multicore Out-of-Order Simulator ***

Warmup Instructions: 10000000
Simulation Instructions: 100000000
Configuration: 2
Number of CPUs: 1
LLC sets: 2048
LLC ways: 16
Off-chip DRAM Channels: 1 Width: 64-bit Data Rate: 1600 MT/s

CPU 0 runs /datasets/cs240c-wi22-a00-public/data/Assignment2-gz/cactusADM_734B.trace.gz
CPU 0 L1D next line prefetcher
CPU 0 L2C IP-based stride prefetcher
Heartbeat CPU 0 instructions: 1000003 cycles: 592726 heartbeat IPC: 1.68713 cumulative IPC: 1.68713 (Simulation time: 0 hr 0 min 25 sec) 
select_counter is 1017
Heartbeat CPU 0 instructions: 2000001 cycles: 1185927 heartbeat IPC: 1.68577 cumulative IPC: 1.68645 (Simulation time: 0 hr 0 min 49 sec) 
select_counter is 1026
Heartbeat CPU 0 instructions: 3000003 cycles: 1778979 heartbeat IPC: 1.6862 cumulative IPC: 1.68636 (Simulation time: 0 hr 1 min 13 sec) 
select_counter is 1021
Heartbeat CPU 0 instructions: 4000000 cycles: 2371929 heartbeat IPC: 1.68648 cumulative IPC: 1.68639 (Simulation time: 0 hr 1 min 37 sec) 
select_counter is 1017
Heartbeat CPU 0 instructions: 5000000 cycles: 2965279 heartbeat IPC: 1.68535 cumulative IPC: 1.68618 (Simulation time: 0 hr 2 min 0 sec) 
select_counter is 1026
Heartbeat CPU 0 instructions: 6000002 cycles: 3558551 heartbeat IPC: 1.68557 cumulative IPC: 1.68608 (Simulation time: 0 hr 2 min 25 sec) 
select_counter is 1020
Heartbeat CPU 0 instructions: 7000000 cycles: 4151394 heartbeat IPC: 1.68678 cumulative IPC: 1.68618 (Simulation time: 0 hr 2 min 51 sec) 
select_counter is 1029
Heartbeat CPU 0 instructions: 8000000 cycles: 4744343 heartbeat IPC: 1.68649 cumulative IPC: 1.68622 (Simulation time: 0 hr 3 min 15 sec) 
select_counter is 1040
Heartbeat CPU 0 instructions: 9000001 cycles: 5337493 heartbeat IPC: 1.68592 cumulative IPC: 1.68619 (Simulation time: 0 hr 3 min 40 sec) 
select_counter is 1069
Heartbeat CPU 0 instructions: 10000003 cycles: 5958967 heartbeat IPC: 1.60908 cumulative IPC: 1.67814 (Simulation time: 0 hr 4 min 4 sec) 
select_counter is 1094

Warmup complete CPU 0 instructions: 10000003 cycles: 5958967 (Simulation time: 0 hr 4 min 4 sec) 

Heartbeat CPU 0 instructions: 11000002 cycles: 12558844 heartbeat IPC: 0.151518 cumulative IPC: 0.151518 (Simulation time: 0 hr 4 min 34 sec) 
select_counter is 1244
Heartbeat CPU 0 instructions: 12000000 cycles: 14301123 heartbeat IPC: 0.57396 cumulative IPC: 0.239746 (Simulation time: 0 hr 4 min 59 sec) 
select_counter is 1275
Heartbeat CPU 0 instructions: 13000002 cycles: 15988769 heartbeat IPC: 0.592543 cumulative IPC: 0.299109 (Simulation time: 0 hr 5 min 24 sec) 
select_counter is 1294
Heartbeat CPU 0 instructions: 14000000 cycles: 17674311 heartbeat IPC: 0.59328 cumulative IPC: 0.341432 (Simulation time: 0 hr 5 min 48 sec) 
select_counter is 1327
Heartbeat CPU 0 instructions: 15000003 cycles: 19413970 heartbeat IPC: 0.574827 cumulative IPC: 0.371609 (Simulation time: 0 hr 6 min 14 sec) 
select_counter is 1363
Heartbeat CPU 0 instructions: 16000000 cycles: 21156640 heartbeat IPC: 0.57383 cumulative IPC: 0.394797 (Simulation time: 0 hr 6 min 39 sec) 
select_counter is 1393
Heartbeat CPU 0 instructions: 17000002 cycles: 22890747 heartbeat IPC: 0.576667 cumulative IPC: 0.413424 (Simulation time: 0 hr 7 min 4 sec) 
select_counter is 1433
Heartbeat CPU 0 instructions: 18000001 cycles: 24548820 heartbeat IPC: 0.603109 cumulative IPC: 0.430342 (Simulation time: 0 hr 7 min 29 sec) 
select_counter is 1468
Heartbeat CPU 0 instructions: 19000000 cycles: 26266117 heartbeat IPC: 0.58231 cumulative IPC: 0.443193 (Simulation time: 0 hr 7 min 54 sec) 
select_counter is 1502
Heartbeat CPU 0 instructions: 20000000 cycles: 28008994 heartbeat IPC: 0.573764 cumulative IPC: 0.453514 (Simulation time: 0 hr 8 min 19 sec) 
select_counter is 1546
Heartbeat CPU 0 instructions: 21000002 cycles: 29752466 heartbeat IPC: 0.573569 cumulative IPC: 0.462311 (Simulation time: 0 hr 8 min 44 sec) 
select_counter is 1592
Heartbeat CPU 0 instructions: 22000000 cycles: 31461720 heartbeat IPC: 0.585049 cumulative IPC: 0.470537 (Simulation time: 0 hr 9 min 9 sec) 
select_counter is 1642
Heartbeat CPU 0 instructions: 23000001 cycles: 33126017 heartbeat IPC: 0.600855 cumulative IPC: 0.478521 (Simulation time: 0 hr 9 min 35 sec) 
select_counter is 1682
Heartbeat CPU 0 instructions: 24000000 cycles: 40799215 heartbeat IPC: 0.130324 cumulative IPC: 0.401834 (Simulation time: 0 hr 10 min 5 sec) 
select_counter is 1629
Heartbeat CPU 0 instructions: 25000000 cycles: 42540597 heartbeat IPC: 0.574257 cumulative IPC: 0.410042 (Simulation time: 0 hr 10 min 30 sec) 
select_counter is 1661
Heartbeat CPU 0 instructions: 26000002 cycles: 44275482 heartbeat IPC: 0.576408 cumulative IPC: 0.417574 (Simulation time: 0 hr 10 min 55 sec) 
select_counter is 1650
Heartbeat CPU 0 instructions: 27000002 cycles: 45939012 heartbeat IPC: 0.601131 cumulative IPC: 0.425212 (Simulation time: 0 hr 11 min 20 sec) 
select_counter is 1639
Heartbeat CPU 0 instructions: 28000000 cycles: 47664892 heartbeat IPC: 0.579413 cumulative IPC: 0.431593 (Simulation time: 0 hr 11 min 45 sec) 
select_counter is 1628
Heartbeat CPU 0 instructions: 29000001 cycles: 49424223 heartbeat IPC: 0.568398 cumulative IPC: 0.437131 (Simulation time: 0 hr 12 min 11 sec) 
select_counter is 1626
Heartbeat CPU 0 instructions: 30000001 cycles: 51166468 heartbeat IPC: 0.573972 cumulative IPC: 0.442404 (Simulation time: 0 hr 12 min 37 sec) 
select_counter is 1636
Heartbeat CPU 0 instructions: 31000003 cycles: 52879189 heartbeat IPC: 0.583867 cumulative IPC: 0.447568 (Simulation time: 0 hr 13 min 5 sec) 
select_counter is 1649
Heartbeat CPU 0 instructions: 32000000 cycles: 54537785 heartbeat IPC: 0.602918 cumulative IPC: 0.452872 (Simulation time: 0 hr 13 min 31 sec) 
select_counter is 1668
Heartbeat CPU 0 instructions: 33000000 cycles: 56273175 heartbeat IPC: 0.576239 cumulative IPC: 0.457127 (Simulation time: 0 hr 13 min 57 sec) 
select_counter is 1706
Heartbeat CPU 0 instructions: 34000001 cycles: 58017607 heartbeat IPC: 0.573253 cumulative IPC: 0.461019 (Simulation time: 0 hr 14 min 24 sec) 
select_counter is 1739
Heartbeat CPU 0 instructions: 35000000 cycles: 59755769 heartbeat IPC: 0.57532 cumulative IPC: 0.464712 (Simulation time: 0 hr 14 min 50 sec) 
select_counter is 1781
Heartbeat CPU 0 instructions: 36000000 cycles: 61438761 heartbeat IPC: 0.59418 cumulative IPC: 0.468639 (Simulation time: 0 hr 15 min 17 sec) 
select_counter is 1817
Heartbeat CPU 0 instructions: 37000003 cycles: 69048317 heartbeat IPC: 0.131414 cumulative IPC: 0.427964 (Simulation time: 0 hr 15 min 49 sec) 
select_counter is 1802
Heartbeat CPU 0 instructions: 38000001 cycles: 70789477 heartbeat IPC: 0.574329 cumulative IPC: 0.431895 (Simulation time: 0 hr 16 min 15 sec) 
select_counter is 1803
Heartbeat CPU 0 instructions: 39000001 cycles: 72530344 heartbeat IPC: 0.574426 cumulative IPC: 0.435623 (Simulation time: 0 hr 16 min 40 sec) 
select_counter is 1788
Heartbeat CPU 0 instructions: 40000000 cycles: 74248034 heartbeat IPC: 0.582177 cumulative IPC: 0.439309 (Simulation time: 0 hr 17 min 6 sec) 
select_counter is 1770
Heartbeat CPU 0 instructions: 41000001 cycles: 75903481 heartbeat IPC: 0.604067 cumulative IPC: 0.443208 (Simulation time: 0 hr 17 min 32 sec) 
select_counter is 1749
Heartbeat CPU 0 instructions: 42000002 cycles: 77639491 heartbeat IPC: 0.576034 cumulative IPC: 0.446425 (Simulation time: 0 hr 17 min 57 sec) 
select_counter is 1743
Heartbeat CPU 0 instructions: 43000000 cycles: 79380855 heartbeat IPC: 0.574261 cumulative IPC: 0.449457 (Simulation time: 0 hr 18 min 22 sec) 
select_counter is 1747
Heartbeat CPU 0 instructions: 44000000 cycles: 81121151 heartbeat IPC: 0.574615 cumulative IPC: 0.452355 (Simulation time: 0 hr 18 min 48 sec) 
select_counter is 1759
Heartbeat CPU 0 instructions: 45000000 cycles: 82806735 heartbeat IPC: 0.593266 cumulative IPC: 0.455446 (Simulation time: 0 hr 19 min 13 sec) 
select_counter is 1765
Heartbeat CPU 0 instructions: 46000003 cycles: 84490214 heartbeat IPC: 0.59401 cumulative IPC: 0.458416 (Simulation time: 0 hr 19 min 40 sec) 
select_counter is 1785
Heartbeat CPU 0 instructions: 47000001 cycles: 86228825 heartbeat IPC: 0.575171 cumulative IPC: 0.460945 (Simulation time: 0 hr 20 min 5 sec) 
select_counter is 1805
Heartbeat CPU 0 instructions: 48000000 cycles: 87970002 heartbeat IPC: 0.574324 cumulative IPC: 0.463352 (Simulation time: 0 hr 20 min 30 sec) 
select_counter is 1833
Heartbeat CPU 0 instructions: 49000000 cycles: 89706420 heartbeat IPC: 0.575898 cumulative IPC: 0.465686 (Simulation time: 0 hr 20 min 55 sec) 
select_counter is 1868
Heartbeat CPU 0 instructions: 50000001 cycles: 97227967 heartbeat IPC: 0.132952 cumulative IPC: 0.438265 (Simulation time: 0 hr 21 min 25 sec) 
select_counter is 1823
Heartbeat CPU 0 instructions: 51000000 cycles: 98957277 heartbeat IPC: 0.578265 cumulative IPC: 0.440868 (Simulation time: 0 hr 21 min 49 sec) 
select_counter is 1840
Heartbeat CPU 0 instructions: 52000000 cycles: 100696556 heartbeat IPC: 0.574951 cumulative IPC: 0.44333 (Simulation time: 0 hr 22 min 15 sec) 
select_counter is 1833
Heartbeat CPU 0 instructions: 53000003 cycles: 102434524 heartbeat IPC: 0.575386 cumulative IPC: 0.445709 (Simulation time: 0 hr 22 min 41 sec) 
select_counter is 1827
Heartbeat CPU 0 instructions: 54000000 cycles: 104121775 heartbeat IPC: 0.592678 cumulative IPC: 0.448235 (Simulation time: 0 hr 23 min 7 sec) 
select_counter is 1806
Heartbeat CPU 0 instructions: 55000001 cycles: 105798012 heartbeat IPC: 0.596575 cumulative IPC: 0.450725 (Simulation time: 0 hr 23 min 33 sec) 
select_counter is 1803
Heartbeat CPU 0 instructions: 56000000 cycles: 107549672 heartbeat IPC: 0.570886 cumulative IPC: 0.452797 (Simulation time: 0 hr 23 min 59 sec) 
select_counter is 1801
Heartbeat CPU 0 instructions: 57000000 cycles: 109298508 heartbeat IPC: 0.571809 cumulative IPC: 0.454811 (Simulation time: 0 hr 24 min 24 sec) 
select_counter is 1803
Heartbeat CPU 0 instructions: 58000001 cycles: 111032295 heartbeat IPC: 0.576773 cumulative IPC: 0.456824 (Simulation time: 0 hr 24 min 50 sec) 
select_counter is 1823
Heartbeat CPU 0 instructions: 59000000 cycles: 112690445 heartbeat IPC: 0.603081 cumulative IPC: 0.459096 (Simulation time: 0 hr 25 min 15 sec) 
select_counter is 1822
Heartbeat CPU 0 instructions: 60000000 cycles: 114396999 heartbeat IPC: 0.585976 cumulative IPC: 0.461093 (Simulation time: 0 hr 25 min 43 sec) 
select_counter is 1849
Heartbeat CPU 0 instructions: 61000002 cycles: 116136324 heartbeat IPC: 0.574937 cumulative IPC: 0.46289 (Simulation time: 0 hr 26 min 8 sec) 
select_counter is 1856
Heartbeat CPU 0 instructions: 62000002 cycles: 117876220 heartbeat IPC: 0.574747 cumulative IPC: 0.464629 (Simulation time: 0 hr 26 min 33 sec) 
select_counter is 1899
Heartbeat CPU 0 instructions: 63000002 cycles: 125320682 heartbeat IPC: 0.134328 cumulative IPC: 0.444028 (Simulation time: 0 hr 27 min 3 sec) 
select_counter is 1882
Heartbeat CPU 0 instructions: 64000000 cycles: 127273179 heartbeat IPC: 0.512164 cumulative IPC: 0.445125 (Simulation time: 0 hr 27 min 29 sec) 
select_counter is 1910
Heartbeat CPU 0 instructions: 65000003 cycles: 129009732 heartbeat IPC: 0.575855 cumulative IPC: 0.44697 (Simulation time: 0 hr 27 min 55 sec) 
select_counter is 1895
Heartbeat CPU 0 instructions: 66000001 cycles: 130751191 heartbeat IPC: 0.57423 cumulative IPC: 0.448746 (Simulation time: 0 hr 28 min 20 sec) 
select_counter is 1896
Heartbeat CPU 0 instructions: 67000000 cycles: 132487737 heartbeat IPC: 0.575855 cumulative IPC: 0.45049 (Simulation time: 0 hr 28 min 45 sec) 
select_counter is 1895
Heartbeat CPU 0 instructions: 68000000 cycles: 134151066 heartbeat IPC: 0.601204 cumulative IPC: 0.452446 (Simulation time: 0 hr 29 min 10 sec) 
select_counter is 1898
Heartbeat CPU 0 instructions: 69000000 cycles: 135852452 heartbeat IPC: 0.587756 cumulative IPC: 0.454218 (Simulation time: 0 hr 29 min 35 sec) 
select_counter is 1923
Heartbeat CPU 0 instructions: 70000001 cycles: 137593690 heartbeat IPC: 0.574305 cumulative IPC: 0.455807 (Simulation time: 0 hr 30 min 0 sec) 
select_counter is 1919
Heartbeat CPU 0 instructions: 71000001 cycles: 139335680 heartbeat IPC: 0.574056 cumulative IPC: 0.457351 (Simulation time: 0 hr 30 min 26 sec) 
select_counter is 1931
Heartbeat CPU 0 instructions: 72000000 cycles: 141057077 heartbeat IPC: 0.580923 cumulative IPC: 0.458926 (Simulation time: 0 hr 30 min 50 sec) 
select_counter is 1941
Heartbeat CPU 0 instructions: 73000003 cycles: 142706701 heartbeat IPC: 0.606201 cumulative IPC: 0.460702 (Simulation time: 0 hr 31 min 16 sec) 
select_counter is 1971
Heartbeat CPU 0 instructions: 74000002 cycles: 144439055 heartbeat IPC: 0.577249 cumulative IPC: 0.46216 (Simulation time: 0 hr 31 min 40 sec) 
select_counter is 1988
Heartbeat CPU 0 instructions: 75000002 cycles: 146179464 heartbeat IPC: 0.574578 cumulative IPC: 0.463556 (Simulation time: 0 hr 32 min 6 sec) 
select_counter is 2038
Heartbeat CPU 0 instructions: 76000000 cycles: 152416230 heartbeat IPC: 0.160339 cumulative IPC: 0.450643 (Simulation time: 0 hr 32 min 35 sec) 
select_counter is 1869
Heartbeat CPU 0 instructions: 77000000 cycles: 155612380 heartbeat IPC: 0.312876 cumulative IPC: 0.447701 (Simulation time: 0 hr 33 min 2 sec) 
select_counter is 1816
Heartbeat CPU 0 instructions: 78000002 cycles: 157309709 heartbeat IPC: 0.589162 cumulative IPC: 0.449288 (Simulation time: 0 hr 33 min 27 sec) 
select_counter is 1798
Heartbeat CPU 0 instructions: 79000002 cycles: 159051906 heartbeat IPC: 0.573988 cumulative IPC: 0.450707 (Simulation time: 0 hr 33 min 52 sec) 
select_counter is 1782
Heartbeat CPU 0 instructions: 80000000 cycles: 160791322 heartbeat IPC: 0.574904 cumulative IPC: 0.452102 (Simulation time: 0 hr 34 min 17 sec) 
select_counter is 1766
Heartbeat CPU 0 instructions: 81000000 cycles: 162519690 heartbeat IPC: 0.57858 cumulative IPC: 0.453498 (Simulation time: 0 hr 34 min 42 sec) 
select_counter is 1738
Heartbeat CPU 0 instructions: 82000003 cycles: 164165665 heartbeat IPC: 0.607544 cumulative IPC: 0.455101 (Simulation time: 0 hr 35 min 5 sec) 
select_counter is 1743
Heartbeat CPU 0 instructions: 83000003 cycles: 165896680 heartbeat IPC: 0.577696 cumulative IPC: 0.456428 (Simulation time: 0 hr 35 min 30 sec) 
select_counter is 1729
Heartbeat CPU 0 instructions: 84000000 cycles: 167636956 heartbeat IPC: 0.57462 cumulative IPC: 0.4577 (Simulation time: 0 hr 35 min 53 sec) 
select_counter is 1723
Heartbeat CPU 0 instructions: 85000003 cycles: 169378451 heartbeat IPC: 0.574221 cumulative IPC: 0.458942 (Simulation time: 0 hr 36 min 15 sec) 
select_counter is 1717
Heartbeat CPU 0 instructions: 86000000 cycles: 171074590 heartbeat IPC: 0.589573 cumulative IPC: 0.460283 (Simulation time: 0 hr 36 min 37 sec) 
select_counter is 1723
Heartbeat CPU 0 instructions: 87000000 cycles: 172750054 heartbeat IPC: 0.59685 cumulative IPC: 0.461655 (Simulation time: 0 hr 36 min 58 sec) 
select_counter is 1715
Heartbeat CPU 0 instructions: 88000000 cycles: 174518539 heartbeat IPC: 0.565456 cumulative IPC: 0.462744 (Simulation time: 0 hr 37 min 19 sec) 
select_counter is 1704
Heartbeat CPU 0 instructions: 89000002 cycles: 179669513 heartbeat IPC: 0.194138 cumulative IPC: 0.45478 (Simulation time: 0 hr 37 min 43 sec) 
select_counter is 1564
Heartbeat CPU 0 instructions: 90000002 cycles: 183964870 heartbeat IPC: 0.23281 cumulative IPC: 0.449423 (Simulation time: 0 hr 38 min 7 sec) 
select_counter is 1430
Heartbeat CPU 0 instructions: 91000003 cycles: 185614437 heartbeat IPC: 0.60622 cumulative IPC: 0.450863 (Simulation time: 0 hr 38 min 27 sec) 
select_counter is 1423
Heartbeat CPU 0 instructions: 92000000 cycles: 187342852 heartbeat IPC: 0.578563 cumulative IPC: 0.45208 (Simulation time: 0 hr 38 min 47 sec) 
select_counter is 1409
Heartbeat CPU 0 instructions: 93000000 cycles: 189082930 heartbeat IPC: 0.574687 cumulative IPC: 0.453245 (Simulation time: 0 hr 39 min 7 sec) 
select_counter is 1394
Heartbeat CPU 0 instructions: 94000003 cycles: 190825606 heartbeat IPC: 0.573832 cumulative IPC: 0.454382 (Simulation time: 0 hr 39 min 27 sec) 
select_counter is 1372
Heartbeat CPU 0 instructions: 95000000 cycles: 192526449 heartbeat IPC: 0.587942 cumulative IPC: 0.455599 (Simulation time: 0 hr 39 min 47 sec) 
select_counter is 1365
Heartbeat CPU 0 instructions: 96000000 cycles: 194197027 heartbeat IPC: 0.598595 cumulative IPC: 0.456868 (Simulation time: 0 hr 40 min 6 sec) 
select_counter is 1339
Heartbeat CPU 0 instructions: 97000001 cycles: 195934071 heartbeat IPC: 0.575691 cumulative IPC: 0.457955 (Simulation time: 0 hr 40 min 24 sec) 
select_counter is 1346
Heartbeat CPU 0 instructions: 98000000 cycles: 197675829 heartbeat IPC: 0.574132 cumulative IPC: 0.45901 (Simulation time: 0 hr 40 min 41 sec) 
select_counter is 1348
Heartbeat CPU 0 instructions: 99000001 cycles: 199416293 heartbeat IPC: 0.57456 cumulative IPC: 0.46005 (Simulation time: 0 hr 40 min 57 sec) 
select_counter is 1356
Heartbeat CPU 0 instructions: 100000000 cycles: 201086398 heartbeat IPC: 0.598764 cumulative IPC: 0.461237 (Simulation time: 0 hr 41 min 12 sec) 
select_counter is 1352
Heartbeat CPU 0 instructions: 101000000 cycles: 202788262 heartbeat IPC: 0.587591 cumulative IPC: 0.46233 (Simulation time: 0 hr 41 min 28 sec) 
select_counter is 1350
Heartbeat CPU 0 instructions: 102000002 cycles: 206826246 heartbeat IPC: 0.247649 cumulative IPC: 0.458014 (Simulation time: 0 hr 41 min 44 sec) 
select_counter is 1225
Heartbeat CPU 0 instructions: 103000000 cycles: 212199068 heartbeat IPC: 0.186122 cumulative IPC: 0.450931 (Simulation time: 0 hr 42 min 1 sec) 
select_counter is 1098
Heartbeat CPU 0 instructions: 104000000 cycles: 213903764 heartbeat IPC: 0.586615 cumulative IPC: 0.452043 (Simulation time: 0 hr 42 min 16 sec) 
select_counter is 1101
Heartbeat CPU 0 instructions: 105000000 cycles: 215567290 heartbeat IPC: 0.601133 cumulative IPC: 0.453226 (Simulation time: 0 hr 42 min 32 sec) 
select_counter is 1091
Heartbeat CPU 0 instructions: 106000002 cycles: 217300340 heartbeat IPC: 0.577019 cumulative IPC: 0.454241 (Simulation time: 0 hr 42 min 48 sec) 
select_counter is 1097
Heartbeat CPU 0 instructions: 107000001 cycles: 219041384 heartbeat IPC: 0.574367 cumulative IPC: 0.455223 (Simulation time: 0 hr 43 min 4 sec) 
select_counter is 1091
Heartbeat CPU 0 instructions: 108000000 cycles: 220778068 heartbeat IPC: 0.575809 cumulative IPC: 0.456198 (Simulation time: 0 hr 43 min 18 sec) 
select_counter is 1091
Heartbeat CPU 0 instructions: 109000001 cycles: 222451955 heartbeat IPC: 0.597412 cumulative IPC: 0.45729 (Simulation time: 0 hr 43 min 33 sec) 
select_counter is 1091
Heartbeat CPU 0 instructions: 110000003 cycles: 224146272 heartbeat IPC: 0.590209 cumulative IPC: 0.458322 (Simulation time: 0 hr 43 min 47 sec) 
select_counter is 1102
Finished CPU 0 instructions: 100000000 cycles: 218187305 cummulative IPC: 0.458322 (Simulation time: 0 hr 43 min 47 sec) 

ChampSim completed all CPUs

Region of Interest Statistics

CPU 0 cummulative IPC: 0.458322 instructions: 100000000 cycles: 218187305
LLC TOTAL     ACCESS:    1167109  HIT:     338010  MISS:     829099
LLC LOAD      ACCESS:      25625  HIT:       1207  MISS:      24418
LLC RFO       ACCESS:     264086  HIT:       6148  MISS:     257938
LLC PREFETCH  ACCESS:     611287  HIT:     117357  MISS:     493930
LLC WRITEBACK ACCESS:     266111  HIT:     213298  MISS:      52813
Ship samples: 
18, 45, 95, 111, 142, 171, 199, 244, 280, 315, 351, 358, 410, 433, 475, 501, 515, 558, 596, 621, 642, 677, 713, 767, 795, 803, 836, 895, 900, 954, 984, 1022, 1046, 1073, 1099, 1135, 1153, 1205, 1233, 1262, 1298, 1334, 1361, 1385, 1422, 1452, 1474, 1517, 1562, 1578, 1610, 1633, 1670, 1712, 1753, 1772, 1807, 1840, 1879, 1908, 1950, 1980, 1993, 2047, 
Lime duel samples: 
4, 51, 79, 124, 137, 191, 205, 227, 269, 303, 350, 362, 399, 442, 451, 502, 526, 549, 607, 631, 660, 699, 719, 765, 772, 829, 837, 883, 926, 930, 986, 1000, 1053, 1085, 1101, 1125, 1158, 1204, 1226, 1268, 1292, 1330, 1349, 1396, 1428, 1444, 1495, 1513, 1567, 1595, 1600, 1648, 1695, 1707, 1754, 1789, 1803, 1826, 1856, 1914, 1925, 1952, 1984, 2026, 
Lime samples: 
4, 124, 205, 303, 399, 502, 607, 699, 772, 883, 986, 1085, 1158, 1268, 1349, 1444, 1567, 1648, 1754, 1826, 1925, 
Insertion Distribution: 
	LOAD 5 0 0 0 0 0 104 325 
	RFO 361 0 0 0 0 0 614 5210 
	PREF 0 1575 0 0 0 0 1984 13049 
	WRITEBACK 0 0 0 0 0 0 0 4788 
Total Prefetch Downgrades: 1607
