
*** ChampSim Multicore Out-of-Order Simulator ***

Warmup Instructions: 10000000
Simulation Instructions: 100000000
Configuration: 2
Number of CPUs: 1
LLC sets: 2048
LLC ways: 16
Off-chip DRAM Channels: 1 Width: 64-bit Data Rate: 1600 MT/s

CPU 0 runs /datasets/cs240c-wi22-a00-public/data/Assignment2-gz/soplex_217B.trace.gz
CPU 0 L1D next line prefetcher
CPU 0 L2C IP-based stride prefetcher
Heartbeat CPU 0 instructions: 1000002 cycles: 441692 heartbeat IPC: 2.26403 cumulative IPC: 2.26403 (Simulation time: 0 hr 0 min 27 sec) 
select_counter is 665
Heartbeat CPU 0 instructions: 2000003 cycles: 800732 heartbeat IPC: 2.78521 cumulative IPC: 2.49772 (Simulation time: 0 hr 0 min 46 sec) 
select_counter is 1038
Heartbeat CPU 0 instructions: 3000002 cycles: 1245833 heartbeat IPC: 2.24668 cumulative IPC: 2.40803 (Simulation time: 0 hr 1 min 7 sec) 
select_counter is 1257
Heartbeat CPU 0 instructions: 4000000 cycles: 1673851 heartbeat IPC: 2.33635 cumulative IPC: 2.3897 (Simulation time: 0 hr 1 min 30 sec) 
select_counter is 2045
Heartbeat CPU 0 instructions: 5000001 cycles: 2057901 heartbeat IPC: 2.60383 cumulative IPC: 2.42966 (Simulation time: 0 hr 1 min 47 sec) 
select_counter is 2046
Heartbeat CPU 0 instructions: 6000000 cycles: 2432207 heartbeat IPC: 2.67161 cumulative IPC: 2.4669 (Simulation time: 0 hr 2 min 3 sec) 
select_counter is 2017
Heartbeat CPU 0 instructions: 7000003 cycles: 2961720 heartbeat IPC: 1.88853 cumulative IPC: 2.36349 (Simulation time: 0 hr 2 min 21 sec) 
select_counter is 2044
Heartbeat CPU 0 instructions: 8000000 cycles: 3409731 heartbeat IPC: 2.23208 cumulative IPC: 2.34623 (Simulation time: 0 hr 2 min 45 sec) 
select_counter is 1441
Heartbeat CPU 0 instructions: 9000001 cycles: 3834235 heartbeat IPC: 2.35569 cumulative IPC: 2.34727 (Simulation time: 0 hr 3 min 6 sec) 
select_counter is 1556
Heartbeat CPU 0 instructions: 10000000 cycles: 4246751 heartbeat IPC: 2.42415 cumulative IPC: 2.35474 (Simulation time: 0 hr 3 min 25 sec) 
select_counter is 1147

Warmup complete CPU 0 instructions: 10000004 cycles: 4246752 (Simulation time: 0 hr 3 min 25 sec) 

Heartbeat CPU 0 instructions: 11000002 cycles: 8172268 heartbeat IPC: 0.254744 cumulative IPC: 0.254743 (Simulation time: 0 hr 3 min 59 sec) 
select_counter is 665
Heartbeat CPU 0 instructions: 12000000 cycles: 10802955 heartbeat IPC: 0.380128 cumulative IPC: 0.305054 (Simulation time: 0 hr 4 min 22 sec) 
select_counter is 350
Heartbeat CPU 0 instructions: 13000000 cycles: 12119310 heartbeat IPC: 0.759673 cumulative IPC: 0.38107 (Simulation time: 0 hr 4 min 38 sec) 
select_counter is 235
Heartbeat CPU 0 instructions: 14000000 cycles: 14765718 heartbeat IPC: 0.377871 cumulative IPC: 0.380265 (Simulation time: 0 hr 5 min 1 sec) 
select_counter is 92
Heartbeat CPU 0 instructions: 15000000 cycles: 17529443 heartbeat IPC: 0.361831 cumulative IPC: 0.376429 (Simulation time: 0 hr 5 min 28 sec) 
select_counter is 1867
Heartbeat CPU 0 instructions: 16000000 cycles: 21265591 heartbeat IPC: 0.267655 cumulative IPC: 0.35255 (Simulation time: 0 hr 6 min 2 sec) 
select_counter is 1649
Heartbeat CPU 0 instructions: 17000002 cycles: 23662116 heartbeat IPC: 0.417272 cumulative IPC: 0.360539 (Simulation time: 0 hr 6 min 26 sec) 
select_counter is 1474
Heartbeat CPU 0 instructions: 18000001 cycles: 26274706 heartbeat IPC: 0.382762 cumulative IPC: 0.363175 (Simulation time: 0 hr 6 min 54 sec) 
select_counter is 1080
Heartbeat CPU 0 instructions: 19000000 cycles: 29885806 heartbeat IPC: 0.276924 cumulative IPC: 0.351027 (Simulation time: 0 hr 7 min 25 sec) 
select_counter is 572
Heartbeat CPU 0 instructions: 20000000 cycles: 31247309 heartbeat IPC: 0.734482 cumulative IPC: 0.370363 (Simulation time: 0 hr 7 min 41 sec) 
select_counter is 499
Heartbeat CPU 0 instructions: 21000000 cycles: 32712702 heartbeat IPC: 0.682411 cumulative IPC: 0.386426 (Simulation time: 0 hr 7 min 59 sec) 
select_counter is 425
Heartbeat CPU 0 instructions: 22000001 cycles: 35916625 heartbeat IPC: 0.312118 cumulative IPC: 0.378909 (Simulation time: 0 hr 8 min 24 sec) 
select_counter is 330
Heartbeat CPU 0 instructions: 23000003 cycles: 39251923 heartbeat IPC: 0.299824 cumulative IPC: 0.371374 (Simulation time: 0 hr 8 min 54 sec) 
select_counter is 2005
Heartbeat CPU 0 instructions: 24000000 cycles: 42560814 heartbeat IPC: 0.302215 cumulative IPC: 0.365401 (Simulation time: 0 hr 9 min 24 sec) 
select_counter is 1969
Heartbeat CPU 0 instructions: 25000001 cycles: 44171050 heartbeat IPC: 0.621028 cumulative IPC: 0.375711 (Simulation time: 0 hr 9 min 48 sec) 
select_counter is 1681
Heartbeat CPU 0 instructions: 26000003 cycles: 48088754 heartbeat IPC: 0.255252 cumulative IPC: 0.364947 (Simulation time: 0 hr 10 min 20 sec) 
select_counter is 1168
Heartbeat CPU 0 instructions: 27000002 cycles: 50509055 heartbeat IPC: 0.413171 cumulative IPC: 0.36747 (Simulation time: 0 hr 10 min 42 sec) 
select_counter is 967
Heartbeat CPU 0 instructions: 28000000 cycles: 51850195 heartbeat IPC: 0.745633 cumulative IPC: 0.378124 (Simulation time: 0 hr 10 min 57 sec) 
select_counter is 900
Heartbeat CPU 0 instructions: 29000002 cycles: 54601284 heartbeat IPC: 0.363493 cumulative IPC: 0.377324 (Simulation time: 0 hr 11 min 18 sec) 
select_counter is 778
Heartbeat CPU 0 instructions: 30000002 cycles: 57526681 heartbeat IPC: 0.341834 cumulative IPC: 0.375376 (Simulation time: 0 hr 11 min 47 sec) 
select_counter is 558
Heartbeat CPU 0 instructions: 31000000 cycles: 60862115 heartbeat IPC: 0.29981 cumulative IPC: 0.370924 (Simulation time: 0 hr 12 min 16 sec) 
select_counter is 152
Heartbeat CPU 0 instructions: 32000000 cycles: 62646622 heartbeat IPC: 0.560379 cumulative IPC: 0.376713 (Simulation time: 0 hr 12 min 39 sec) 
select_counter is 1969
Heartbeat CPU 0 instructions: 33000001 cycles: 66080941 heartbeat IPC: 0.291179 cumulative IPC: 0.371962 (Simulation time: 0 hr 13 min 9 sec) 
select_counter is 1121
Heartbeat CPU 0 instructions: 34000000 cycles: 68917152 heartbeat IPC: 0.352583 cumulative IPC: 0.371113 (Simulation time: 0 hr 13 min 33 sec) 
select_counter is 819
Heartbeat CPU 0 instructions: 35000002 cycles: 70269999 heartbeat IPC: 0.739183 cumulative IPC: 0.378654 (Simulation time: 0 hr 13 min 49 sec) 
select_counter is 737
Heartbeat CPU 0 instructions: 36000000 cycles: 72516272 heartbeat IPC: 0.445181 cumulative IPC: 0.380843 (Simulation time: 0 hr 14 min 9 sec) 
select_counter is 667
Heartbeat CPU 0 instructions: 37000002 cycles: 75150359 heartbeat IPC: 0.379639 cumulative IPC: 0.380799 (Simulation time: 0 hr 14 min 35 sec) 
select_counter is 637
Heartbeat CPU 0 instructions: 38000000 cycles: 78805257 heartbeat IPC: 0.273605 cumulative IPC: 0.375544 (Simulation time: 0 hr 15 min 7 sec) 
select_counter is 486
Heartbeat CPU 0 instructions: 39000001 cycles: 80900570 heartbeat IPC: 0.477256 cumulative IPC: 0.378324 (Simulation time: 0 hr 15 min 31 sec) 
select_counter is 288
Heartbeat CPU 0 instructions: 40000000 cycles: 84074025 heartbeat IPC: 0.315114 cumulative IPC: 0.375811 (Simulation time: 0 hr 16 min 0 sec) 
select_counter is 1699
Heartbeat CPU 0 instructions: 41000000 cycles: 87237955 heartbeat IPC: 0.316063 cumulative IPC: 0.373534 (Simulation time: 0 hr 16 min 26 sec) 
select_counter is 1199
Heartbeat CPU 0 instructions: 42000002 cycles: 88589719 heartbeat IPC: 0.739776 cumulative IPC: 0.379403 (Simulation time: 0 hr 16 min 42 sec) 
select_counter is 1126
Heartbeat CPU 0 instructions: 43000001 cycles: 90412349 heartbeat IPC: 0.548657 cumulative IPC: 0.382983 (Simulation time: 0 hr 17 min 3 sec) 
select_counter is 1061
Heartbeat CPU 0 instructions: 44000000 cycles: 93238955 heartbeat IPC: 0.353781 cumulative IPC: 0.382056 (Simulation time: 0 hr 17 min 30 sec) 
select_counter is 904
Heartbeat CPU 0 instructions: 45000003 cycles: 96998159 heartbeat IPC: 0.266015 cumulative IPC: 0.377353 (Simulation time: 0 hr 18 min 0 sec) 
select_counter is 600
Heartbeat CPU 0 instructions: 46000000 cycles: 99910219 heartbeat IPC: 0.343398 cumulative IPC: 0.376319 (Simulation time: 0 hr 18 min 29 sec) 
select_counter is 622
Heartbeat CPU 0 instructions: 47000001 cycles: 101665835 heartbeat IPC: 0.569601 cumulative IPC: 0.379802 (Simulation time: 0 hr 18 min 54 sec) 
select_counter is 348
Heartbeat CPU 0 instructions: 48000000 cycles: 105309166 heartbeat IPC: 0.274474 cumulative IPC: 0.376005 (Simulation time: 0 hr 19 min 25 sec) 
select_counter is 1850
Heartbeat CPU 0 instructions: 49000000 cycles: 107881889 heartbeat IPC: 0.388693 cumulative IPC: 0.37632 (Simulation time: 0 hr 19 min 48 sec) 
select_counter is 1635
Heartbeat CPU 0 instructions: 50000001 cycles: 109227736 heartbeat IPC: 0.743027 cumulative IPC: 0.381021 (Simulation time: 0 hr 20 min 4 sec) 
select_counter is 1569
Heartbeat CPU 0 instructions: 51000000 cycles: 111776929 heartbeat IPC: 0.392281 cumulative IPC: 0.381288 (Simulation time: 0 hr 20 min 26 sec) 
select_counter is 1492
Heartbeat CPU 0 instructions: 52000000 cycles: 114528360 heartbeat IPC: 0.363447 cumulative IPC: 0.380843 (Simulation time: 0 hr 20 min 53 sec) 
select_counter is 1460
Heartbeat CPU 0 instructions: 53000000 cycles: 117883579 heartbeat IPC: 0.298043 cumulative IPC: 0.378398 (Simulation time: 0 hr 21 min 23 sec) 
select_counter is 1198
Heartbeat CPU 0 instructions: 54000000 cycles: 119887318 heartbeat IPC: 0.499067 cumulative IPC: 0.380489 (Simulation time: 0 hr 21 min 48 sec) 
select_counter is 989
Heartbeat CPU 0 instructions: 55000000 cycles: 123348817 heartbeat IPC: 0.288892 cumulative IPC: 0.377827 (Simulation time: 0 hr 22 min 19 sec) 
select_counter is 438
Heartbeat CPU 0 instructions: 56000000 cycles: 126273019 heartbeat IPC: 0.341974 cumulative IPC: 0.376968 (Simulation time: 0 hr 22 min 44 sec) 
select_counter is 38
Heartbeat CPU 0 instructions: 57000003 cycles: 127601977 heartbeat IPC: 0.752472 cumulative IPC: 0.381013 (Simulation time: 0 hr 22 min 59 sec) 
select_counter is 2010
Heartbeat CPU 0 instructions: 58000000 cycles: 129771202 heartbeat IPC: 0.460993 cumulative IPC: 0.382396 (Simulation time: 0 hr 23 min 19 sec) 
select_counter is 1916
Heartbeat CPU 0 instructions: 59000001 cycles: 132420896 heartbeat IPC: 0.377402 cumulative IPC: 0.382292 (Simulation time: 0 hr 23 min 45 sec) 
select_counter is 1877
Heartbeat CPU 0 instructions: 60000000 cycles: 136000280 heartbeat IPC: 0.279377 cumulative IPC: 0.379496 (Simulation time: 0 hr 24 min 19 sec) 
select_counter is 1545
Heartbeat CPU 0 instructions: 61000000 cycles: 138376471 heartbeat IPC: 0.420842 cumulative IPC: 0.380229 (Simulation time: 0 hr 24 min 42 sec) 
select_counter is 1269
Heartbeat CPU 0 instructions: 62000000 cycles: 141234928 heartbeat IPC: 0.349839 cumulative IPC: 0.379595 (Simulation time: 0 hr 25 min 10 sec) 
select_counter is 649
Heartbeat CPU 0 instructions: 63000001 cycles: 144794671 heartbeat IPC: 0.280919 cumulative IPC: 0.377096 (Simulation time: 0 hr 25 min 39 sec) 
select_counter is 2040
Heartbeat CPU 0 instructions: 64000000 cycles: 146125202 heartbeat IPC: 0.751579 cumulative IPC: 0.380607 (Simulation time: 0 hr 25 min 55 sec) 
select_counter is 1970
Heartbeat CPU 0 instructions: 65000000 cycles: 147643672 heartbeat IPC: 0.658558 cumulative IPC: 0.383551 (Simulation time: 0 hr 26 min 14 sec) 
select_counter is 1894
Heartbeat CPU 0 instructions: 66000002 cycles: 150779215 heartbeat IPC: 0.318925 cumulative IPC: 0.382168 (Simulation time: 0 hr 26 min 40 sec) 
select_counter is 1807
Heartbeat CPU 0 instructions: 67000000 cycles: 154257351 heartbeat IPC: 0.28751 cumulative IPC: 0.379973 (Simulation time: 0 hr 27 min 13 sec) 
select_counter is 1715
Heartbeat CPU 0 instructions: 68000000 cycles: 160296163 heartbeat IPC: 0.165595 cumulative IPC: 0.371677 (Simulation time: 0 hr 27 min 48 sec) 
select_counter is 1763
Heartbeat CPU 0 instructions: 69000001 cycles: 164498145 heartbeat IPC: 0.237983 cumulative IPC: 0.368172 (Simulation time: 0 hr 28 min 19 sec) 
select_counter is 2045
Heartbeat CPU 0 instructions: 70000002 cycles: 168708336 heartbeat IPC: 0.237519 cumulative IPC: 0.364827 (Simulation time: 0 hr 28 min 51 sec) 
select_counter is 2043
Heartbeat CPU 0 instructions: 71000002 cycles: 173240585 heartbeat IPC: 0.220641 cumulative IPC: 0.36096 (Simulation time: 0 hr 29 min 22 sec) 
select_counter is 2032
Heartbeat CPU 0 instructions: 72000000 cycles: 176693305 heartbeat IPC: 0.289626 cumulative IPC: 0.359532 (Simulation time: 0 hr 29 min 48 sec) 
select_counter is 2045
Heartbeat CPU 0 instructions: 73000000 cycles: 180061417 heartbeat IPC: 0.296902 cumulative IPC: 0.358332 (Simulation time: 0 hr 30 min 16 sec) 
select_counter is 1997
Heartbeat CPU 0 instructions: 74000000 cycles: 183924991 heartbeat IPC: 0.258828 cumulative IPC: 0.356192 (Simulation time: 0 hr 30 min 39 sec) 
select_counter is 1866
Heartbeat CPU 0 instructions: 75000002 cycles: 187890188 heartbeat IPC: 0.252195 cumulative IPC: 0.353947 (Simulation time: 0 hr 31 min 8 sec) 
select_counter is 1797
Heartbeat CPU 0 instructions: 76000000 cycles: 190510962 heartbeat IPC: 0.381566 cumulative IPC: 0.354335 (Simulation time: 0 hr 31 min 31 sec) 
select_counter is 1752
Heartbeat CPU 0 instructions: 77000000 cycles: 194173279 heartbeat IPC: 0.273051 cumulative IPC: 0.352768 (Simulation time: 0 hr 32 min 0 sec) 
select_counter is 1844
Heartbeat CPU 0 instructions: 78000002 cycles: 196364101 heartbeat IPC: 0.456451 cumulative IPC: 0.35395 (Simulation time: 0 hr 32 min 25 sec) 
select_counter is 1936
Heartbeat CPU 0 instructions: 79000001 cycles: 198224610 heartbeat IPC: 0.537487 cumulative IPC: 0.355711 (Simulation time: 0 hr 32 min 50 sec) 
select_counter is 2047
Heartbeat CPU 0 instructions: 80000000 cycles: 199385908 heartbeat IPC: 0.861105 cumulative IPC: 0.358718 (Simulation time: 0 hr 33 min 9 sec) 
select_counter is 2045
Heartbeat CPU 0 instructions: 81000003 cycles: 201573243 heartbeat IPC: 0.457179 cumulative IPC: 0.35981 (Simulation time: 0 hr 33 min 33 sec) 
select_counter is 2045
Heartbeat CPU 0 instructions: 82000001 cycles: 204582035 heartbeat IPC: 0.332359 cumulative IPC: 0.359397 (Simulation time: 0 hr 34 min 1 sec) 
select_counter is 1780
Heartbeat CPU 0 instructions: 83000002 cycles: 207293321 heartbeat IPC: 0.368829 cumulative IPC: 0.359523 (Simulation time: 0 hr 34 min 28 sec) 
select_counter is 1612
Heartbeat CPU 0 instructions: 84000000 cycles: 209614854 heartbeat IPC: 0.430749 cumulative IPC: 0.360329 (Simulation time: 0 hr 34 min 52 sec) 
select_counter is 1304
Heartbeat CPU 0 instructions: 85000000 cycles: 211233352 heartbeat IPC: 0.617857 cumulative IPC: 0.362342 (Simulation time: 0 hr 35 min 15 sec) 
select_counter is 1227
Heartbeat CPU 0 instructions: 86000000 cycles: 215315209 heartbeat IPC: 0.244987 cumulative IPC: 0.360073 (Simulation time: 0 hr 35 min 49 sec) 
select_counter is 51
Heartbeat CPU 0 instructions: 87000000 cycles: 217856445 heartbeat IPC: 0.393509 cumulative IPC: 0.360471 (Simulation time: 0 hr 36 min 10 sec) 
select_counter is 1890
Heartbeat CPU 0 instructions: 88000000 cycles: 219164633 heartbeat IPC: 0.764416 cumulative IPC: 0.362929 (Simulation time: 0 hr 36 min 25 sec) 
select_counter is 1840
Heartbeat CPU 0 instructions: 89000003 cycles: 221774269 heartbeat IPC: 0.383196 cumulative IPC: 0.363172 (Simulation time: 0 hr 36 min 44 sec) 
select_counter is 1744
Heartbeat CPU 0 instructions: 90000002 cycles: 224540490 heartbeat IPC: 0.361504 cumulative IPC: 0.363151 (Simulation time: 0 hr 37 min 9 sec) 
select_counter is 1923
Heartbeat CPU 0 instructions: 91000001 cycles: 227992858 heartbeat IPC: 0.289656 cumulative IPC: 0.362017 (Simulation time: 0 hr 37 min 37 sec) 
select_counter is 1428
Heartbeat CPU 0 instructions: 92000000 cycles: 230024372 heartbeat IPC: 0.492243 cumulative IPC: 0.363189 (Simulation time: 0 hr 37 min 59 sec) 
select_counter is 1247
Heartbeat CPU 0 instructions: 93000000 cycles: 233807186 heartbeat IPC: 0.264353 cumulative IPC: 0.361561 (Simulation time: 0 hr 38 min 27 sec) 
select_counter is 129
Heartbeat CPU 0 instructions: 94000001 cycles: 236704918 heartbeat IPC: 0.345098 cumulative IPC: 0.361355 (Simulation time: 0 hr 38 min 47 sec) 
select_counter is 1619
Heartbeat CPU 0 instructions: 95000003 cycles: 238050768 heartbeat IPC: 0.743026 cumulative IPC: 0.363552 (Simulation time: 0 hr 39 min 0 sec) 
select_counter is 1528
Heartbeat CPU 0 instructions: 96000000 cycles: 240310384 heartbeat IPC: 0.442552 cumulative IPC: 0.364309 (Simulation time: 0 hr 39 min 16 sec) 
select_counter is 1421
Heartbeat CPU 0 instructions: 97000002 cycles: 242818691 heartbeat IPC: 0.398676 cumulative IPC: 0.36467 (Simulation time: 0 hr 39 min 36 sec) 
select_counter is 1307
Heartbeat CPU 0 instructions: 98000003 cycles: 246953760 heartbeat IPC: 0.241834 cumulative IPC: 0.362577 (Simulation time: 0 hr 40 min 3 sec) 
select_counter is 1138
Heartbeat CPU 0 instructions: 99000000 cycles: 249936015 heartbeat IPC: 0.335316 cumulative IPC: 0.362246 (Simulation time: 0 hr 40 min 23 sec) 
select_counter is 945
Heartbeat CPU 0 instructions: 100000000 cycles: 251880457 heartbeat IPC: 0.514286 cumulative IPC: 0.36344 (Simulation time: 0 hr 40 min 41 sec) 
select_counter is 601
Heartbeat CPU 0 instructions: 101000001 cycles: 255842167 heartbeat IPC: 0.252417 cumulative IPC: 0.361692 (Simulation time: 0 hr 41 min 1 sec) 
select_counter is 220
Heartbeat CPU 0 instructions: 102000000 cycles: 257480962 heartbeat IPC: 0.610204 cumulative IPC: 0.3633 (Simulation time: 0 hr 41 min 11 sec) 
select_counter is 171
Heartbeat CPU 0 instructions: 103000001 cycles: 258781426 heartbeat IPC: 0.768957 cumulative IPC: 0.365373 (Simulation time: 0 hr 41 min 21 sec) 
select_counter is 130
Heartbeat CPU 0 instructions: 104000000 cycles: 262079907 heartbeat IPC: 0.30317 cumulative IPC: 0.364577 (Simulation time: 0 hr 41 min 37 sec) 
select_counter is 68
Heartbeat CPU 0 instructions: 105000001 cycles: 265202036 heartbeat IPC: 0.320295 cumulative IPC: 0.364047 (Simulation time: 0 hr 41 min 54 sec) 
select_counter is 1874
Heartbeat CPU 0 instructions: 106000002 cycles: 267972076 heartbeat IPC: 0.361006 cumulative IPC: 0.364015 (Simulation time: 0 hr 42 min 9 sec) 
select_counter is 1601
Heartbeat CPU 0 instructions: 107000000 cycles: 269758727 heartbeat IPC: 0.559705 cumulative IPC: 0.365332 (Simulation time: 0 hr 42 min 23 sec) 
select_counter is 1351
Heartbeat CPU 0 instructions: 108000000 cycles: 273873931 heartbeat IPC: 0.243001 cumulative IPC: 0.363465 (Simulation time: 0 hr 42 min 43 sec) 
select_counter is 607
Heartbeat CPU 0 instructions: 109000000 cycles: 275824805 heartbeat IPC: 0.512591 cumulative IPC: 0.364536 (Simulation time: 0 hr 42 min 54 sec) 
select_counter is 500
Heartbeat CPU 0 instructions: 110000002 cycles: 277174079 heartbeat IPC: 0.741141 cumulative IPC: 0.366398 (Simulation time: 0 hr 43 min 3 sec) 
select_counter is 417
Finished CPU 0 instructions: 100000000 cycles: 272927331 cummulative IPC: 0.366398 (Simulation time: 0 hr 43 min 3 sec) 

ChampSim completed all CPUs

Region of Interest Statistics

CPU 0 cummulative IPC: 0.366398 instructions: 100000000 cycles: 272927331
LLC TOTAL     ACCESS:    8717579  HIT:    4271114  MISS:    4446465
LLC LOAD      ACCESS:    2239600  HIT:     961612  MISS:    1277988
LLC RFO       ACCESS:     764945  HIT:     323723  MISS:     441222
LLC PREFETCH  ACCESS:    3552503  HIT:    1392733  MISS:    2159770
LLC WRITEBACK ACCESS:    2160531  HIT:    1593046  MISS:     567485
Ship samples: 
26, 57, 81, 97, 144, 160, 213, 241, 263, 293, 349, 355, 407, 434, 464, 488, 521, 549, 597, 615, 666, 684, 725, 754, 797, 813, 842, 875, 900, 943, 973, 1001, 1036, 1069, 1096, 1144, 1176, 1196, 1243, 1260, 1311, 1330, 1355, 1386, 1435, 1444, 1488, 1535, 1563, 1598, 1601, 1637, 1690, 1702, 1744, 1774, 1805, 1848, 1886, 1895, 1947, 1953, 2008, 2024, 
Lime duel samples: 
29, 36, 76, 109, 148, 161, 220, 240, 267, 298, 334, 361, 401, 435, 462, 496, 532, 564, 598, 633, 662, 675, 714, 759, 799, 800, 858, 881, 897, 957, 980, 1015, 1047, 1070, 1089, 1140, 1154, 1188, 1229, 1278, 1304, 1338, 1353, 1405, 1423, 1465, 1480, 1517, 1564, 1581, 1603, 1654, 1689, 1714, 1749, 1779, 1807, 1824, 1880, 1890, 1945, 1963, 1996, 2017, 
Lime samples: 
29, 109, 220, 298, 401, 496, 598, 675, 799, 881, 980, 1070, 1154, 1278, 1353, 1465, 1564, 1654, 1749, 1824, 1945, 
Insertion Distribution: 
	LOAD 88970 0 0 0 0 0 11822 149853 
	RFO 28957 0 0 0 0 0 11266 33512 
	PREF 0 26089 0 0 0 0 53241 363312 
	WRITEBACK 0 0 0 0 0 0 0 72499 
Total Prefetch Downgrades: 28475
