Initialize SIGNATURE TABLE
ST_SET: 1
ST_WAY: 256
ST_TAG_BIT: 16
ST_TAG_MASK: ffff

Initialize PATTERN TABLE
PT_SET: 512
PT_WAY: 4
SIG_DELTA_BIT: 7
C_SIG_BIT: 4
C_DELTA_BIT: 4

Initialize PREFETCH FILTER
FILTER_SET: 1024

*** ChampSim Multicore Out-of-Order Simulator ***

Warmup Instructions: 50000000
Simulation Instructions: 50000000
Number of CPUs: 1
LLC sets: 2048
LLC ways: 16
Off-chip DRAM Size: 4096 MB Channels: 1 Width: 64-bit Data Rate: 3200 MT/s

CPU 0 runs /Users/gandhardeshpande/Desktop/CSE240C/HW1/ChampSim/ipc1_public/client_002.champsimtrace.xz
CPU 0 L1I next line prefetcher
Running FNL-MMA for L1I
CPU 0 L1D next line prefetcher
Heartbeat CPU 0 instructions: 10000000 cycles: 3405449 heartbeat IPC: 2.93647 cumulative IPC: 2.93647 (Simulation time: 0 hr 0 min 13 sec) 
Heartbeat CPU 0 instructions: 20000002 cycles: 6861770 heartbeat IPC: 2.89325 cumulative IPC: 2.9147 (Simulation time: 0 hr 0 min 27 sec) 
Heartbeat CPU 0 instructions: 30000001 cycles: 10295187 heartbeat IPC: 2.91255 cumulative IPC: 2.91398 (Simulation time: 0 hr 0 min 41 sec) 
Heartbeat CPU 0 instructions: 40000002 cycles: 13728665 heartbeat IPC: 2.9125 cumulative IPC: 2.91361 (Simulation time: 0 hr 0 min 54 sec) 
Heartbeat CPU 0 instructions: 50000002 cycles: 17170146 heartbeat IPC: 2.90573 cumulative IPC: 2.91203 (Simulation time: 0 hr 1 min 8 sec) 

Warmup complete CPU 0 instructions: 50000002 cycles: 17170146 (Simulation time: 0 hr 1 min 8 sec) 

Heartbeat CPU 0 instructions: 60000002 cycles: 23331044 heartbeat IPC: 1.62314 cumulative IPC: 1.62314 (Simulation time: 0 hr 1 min 20 sec) 
Heartbeat CPU 0 instructions: 70000001 cycles: 29557666 heartbeat IPC: 1.60601 cumulative IPC: 1.61453 (Simulation time: 0 hr 1 min 31 sec) 
Heartbeat CPU 0 instructions: 80000003 cycles: 35650386 heartbeat IPC: 1.6413 cumulative IPC: 1.62336 (Simulation time: 0 hr 1 min 43 sec) 
Heartbeat CPU 0 instructions: 90000000 cycles: 42316937 heartbeat IPC: 1.50003 cumulative IPC: 1.59066 (Simulation time: 0 hr 1 min 54 sec) 
Heartbeat CPU 0 instructions: 100000003 cycles: 48481672 heartbeat IPC: 1.62213 cumulative IPC: 1.59686 (Simulation time: 0 hr 2 min 6 sec) 
Finished CPU 0 instructions: 50000001 cycles: 31311526 cumulative IPC: 1.59686 (Simulation time: 0 hr 2 min 6 sec) 

ChampSim completed all CPUs

Region of Interest Statistics

CPU 0 cumulative IPC: 1.59686 instructions: 50000001 cycles: 31311526
L1D TOTAL     ACCESS:   19279995  HIT:   18940557  MISS:     339438
L1D LOAD      ACCESS:    6561335  HIT:    6444812  MISS:     116523
L1D RFO       ACCESS:    6420973  HIT:    6331337  MISS:      89636
L1D PREFETCH  ACCESS:    6297687  HIT:    6164408  MISS:     133279
L1D WRITEBACK ACCESS:          0  HIT:          0  MISS:          0
L1D PREFETCH  REQUESTED:    6571809  ISSUED:    6367731  USEFUL:      54323  USELESS:      79099
L1D AVERAGE MISS LATENCY: 49.0767 cycles
L1I TOTAL     ACCESS:   12210094  HIT:   11092046  MISS:    1118048
L1I LOAD      ACCESS:    9537980  HIT:    9318758  MISS:     219222
L1I RFO       ACCESS:          0  HIT:          0  MISS:          0
L1I PREFETCH  ACCESS:    2672114  HIT:    1773288  MISS:     898826
L1I WRITEBACK ACCESS:          0  HIT:          0  MISS:          0
L1I PREFETCH  REQUESTED:    2828493  ISSUED:    2828471  USEFUL:     534513  USELESS:     364293
L1I AVERAGE MISS LATENCY: 18.5165 cycles
L2C TOTAL     ACCESS:    2073440  HIT:    1791293  MISS:     282147
L2C LOAD      ACCESS:     298219  HIT:     224297  MISS:      73922
L2C RFO       ACCESS:      88699  HIT:      20216  MISS:      68483
L2C PREFETCH  ACCESS:    1561008  HIT:    1422020  MISS:     138988
L2C WRITEBACK ACCESS:     125514  HIT:     124760  MISS:        754
L2C PREFETCH  REQUESTED:    1696111  ISSUED:    1695718  USEFUL:      16716  USELESS:     121740
L2C AVERAGE MISS LATENCY: 61.1262 cycles
LLC TOTAL     ACCESS:     702036  HIT:     633223  MISS:      68813
LLC LOAD      ACCESS:      73915  HIT:      67642  MISS:       6273
LLC RFO       ACCESS:      68483  HIT:      39013  MISS:      29470
LLC PREFETCH  ACCESS:     472026  HIT:     439202  MISS:      32824
LLC WRITEBACK ACCESS:      87612  HIT:      87366  MISS:        246
LLC PREFETCH  REQUESTED:          0  ISSUED:          0  USEFUL:       5758  USELESS:      25627
LLC AVERAGE MISS LATENCY: 176.838 cycles
Major fault: 0 Minor fault: 3097
I-Shadow cache 408 bytes
Touched + WorthPF tables 3072 bytes 
MMA filter 174 bytes 
FNL filter 272 bytes 
TOTAL PREFETCHER STORAGE SIZE: 13014 bytes
CPU 0 L1I next line prefetcher final stats
CPU 0 L1D next line prefetcher final stats

DRAM Statistics
 CHANNEL 0
 RQ ROW_BUFFER_HIT:      23513  ROW_BUFFER_MISS:      45054
 DBUS_CONGESTED:      47043
 WQ ROW_BUFFER_HIT:       9128  ROW_BUFFER_MISS:      28304  FULL:          0

 AVG_CONGESTED_CYCLE: 6

CPU 0 Branch Prediction Accuracy: 99.2117% MPKI: 1.49752 Average ROB Occupancy at Mispredict: 103.078

Branch types
NOT_BRANCH: 40501616 81.0032%
BRANCH_DIRECT_JUMP: 517397 1.03479%
BRANCH_INDIRECT: 112348 0.224696%
BRANCH_CONDITIONAL: 6698737 13.3975%
BRANCH_DIRECT_CALL: 960974 1.92195%
BRANCH_INDIRECT_CALL: 123707 0.247414%
BRANCH_RETURN: 1084929 2.16986%
BRANCH_OTHER: 0 0%

