Initialize SIGNATURE TABLE
ST_SET: 1
ST_WAY: 256
ST_TAG_BIT: 16
ST_TAG_MASK: ffff

Initialize PATTERN TABLE
PT_SET: 512
PT_WAY: 4
SIG_DELTA_BIT: 7
C_SIG_BIT: 4
C_DELTA_BIT: 4

Initialize PREFETCH FILTER
FILTER_SET: 1024

*** ChampSim Multicore Out-of-Order Simulator ***

Warmup Instructions: 50000000
Simulation Instructions: 50000000
Number of CPUs: 1
LLC sets: 2048
LLC ways: 16
Off-chip DRAM Size: 4096 MB Channels: 1 Width: 64-bit Data Rate: 3200 MT/s

CPU 0 runs /Users/gandhardeshpande/Desktop/CSE240C/HW1/ChampSim/ipc1_public/server_011.champsimtrace.xz
CPU 0 L1I next line prefetcher
Running FNL-MMA for L1I
CPU 0 L1D next line prefetcher
Heartbeat CPU 0 instructions: 10000002 cycles: 3209024 heartbeat IPC: 3.11621 cumulative IPC: 3.11621 (Simulation time: 0 hr 0 min 14 sec) 
Heartbeat CPU 0 instructions: 20000001 cycles: 6423136 heartbeat IPC: 3.11128 cumulative IPC: 3.11374 (Simulation time: 0 hr 0 min 28 sec) 
Heartbeat CPU 0 instructions: 30000001 cycles: 9681557 heartbeat IPC: 3.06897 cumulative IPC: 3.09868 (Simulation time: 0 hr 0 min 42 sec) 
Heartbeat CPU 0 instructions: 40000003 cycles: 12887602 heartbeat IPC: 3.11911 cumulative IPC: 3.10376 (Simulation time: 0 hr 0 min 55 sec) 
Heartbeat CPU 0 instructions: 50000000 cycles: 16100318 heartbeat IPC: 3.11263 cumulative IPC: 3.10553 (Simulation time: 0 hr 1 min 9 sec) 

Warmup complete CPU 0 instructions: 50000004 cycles: 16100319 (Simulation time: 0 hr 1 min 9 sec) 

Heartbeat CPU 0 instructions: 60000002 cycles: 24559390 heartbeat IPC: 1.18216 cumulative IPC: 1.18216 (Simulation time: 0 hr 1 min 21 sec) 
Heartbeat CPU 0 instructions: 70000001 cycles: 33375745 heartbeat IPC: 1.13426 cumulative IPC: 1.15771 (Simulation time: 0 hr 1 min 33 sec) 
Heartbeat CPU 0 instructions: 80000003 cycles: 42357963 heartbeat IPC: 1.11331 cumulative IPC: 1.14252 (Simulation time: 0 hr 1 min 44 sec) 
Heartbeat CPU 0 instructions: 90000001 cycles: 51076449 heartbeat IPC: 1.14699 cumulative IPC: 1.14364 (Simulation time: 0 hr 1 min 55 sec) 
Heartbeat CPU 0 instructions: 100000000 cycles: 59629402 heartbeat IPC: 1.16919 cumulative IPC: 1.14866 (Simulation time: 0 hr 2 min 7 sec) 
Finished CPU 0 instructions: 50000003 cycles: 43529095 cumulative IPC: 1.14866 (Simulation time: 0 hr 2 min 7 sec) 

ChampSim completed all CPUs

Region of Interest Statistics

CPU 0 cumulative IPC: 1.14866 instructions: 50000003 cycles: 43529095
L1D TOTAL     ACCESS:   18418547  HIT:   17386968  MISS:    1031579
L1D LOAD      ACCESS:    6906783  HIT:    6427262  MISS:     479521
L1D RFO       ACCESS:    4843475  HIT:    4761394  MISS:      82081
L1D PREFETCH  ACCESS:    6668289  HIT:    6198312  MISS:     469977
L1D WRITEBACK ACCESS:          0  HIT:          0  MISS:          0
L1D PREFETCH  REQUESTED:    6946085  ISSUED:    6851747  USEFUL:     139473  USELESS:     330499
L1D AVERAGE MISS LATENCY: 44.5762 cycles
L1I TOTAL     ACCESS:   11812587  HIT:    9571795  MISS:    2240792
L1I LOAD      ACCESS:    8829894  HIT:    8354957  MISS:     474937
L1I RFO       ACCESS:          0  HIT:          0  MISS:          0
L1I PREFETCH  ACCESS:    2982693  HIT:    1216838  MISS:    1765855
L1I WRITEBACK ACCESS:          0  HIT:          0  MISS:          0
L1I PREFETCH  REQUESTED:    3326568  ISSUED:    3326250  USEFUL:     900474  USELESS:     865331
L1I AVERAGE MISS LATENCY: 33.0569 cycles
L2C TOTAL     ACCESS:    4194980  HIT:    2766088  MISS:    1428892
L2C LOAD      ACCESS:     792088  HIT:     423071  MISS:     369017
L2C RFO       ACCESS:      80213  HIT:      31677  MISS:      48536
L2C PREFETCH  ACCESS:    3054553  HIT:    2045885  MISS:    1008668
L2C WRITEBACK ACCESS:     268126  HIT:     265455  MISS:       2671
L2C PREFETCH  REQUESTED:    4004568  ISSUED:    4001236  USEFUL:      46822  USELESS:     961905
L2C AVERAGE MISS LATENCY: 56.2351 cycles
LLC TOTAL     ACCESS:    2500892  HIT:    2223528  MISS:     277364
LLC LOAD      ACCESS:     368814  HIT:     323122  MISS:      45692
LLC RFO       ACCESS:      48529  HIT:      33139  MISS:      15390
LLC PREFETCH  ACCESS:    1918694  HIT:    1702898  MISS:     215796
LLC WRITEBACK ACCESS:     164855  HIT:     164369  MISS:        486
LLC PREFETCH  REQUESTED:          0  ISSUED:          0  USEFUL:      18818  USELESS:     195576
LLC AVERAGE MISS LATENCY: 176.382 cycles
Major fault: 0 Minor fault: 7001
I-Shadow cache 408 bytes
Touched + WorthPF tables 3072 bytes 
MMA filter 174 bytes 
FNL filter 272 bytes 
TOTAL PREFETCHER STORAGE SIZE: 13014 bytes
CPU 0 L1I next line prefetcher final stats
CPU 0 L1D next line prefetcher final stats

DRAM Statistics
 CHANNEL 0
 RQ ROW_BUFFER_HIT:      57742  ROW_BUFFER_MISS:     219070
 DBUS_CONGESTED:     129617
 WQ ROW_BUFFER_HIT:      14040  ROW_BUFFER_MISS:      53634  FULL:          0

 AVG_CONGESTED_CYCLE: 5

CPU 0 Branch Prediction Accuracy: 97.5565% MPKI: 4.59006 Average ROB Occupancy at Mispredict: 55.9672

Branch types
NOT_BRANCH: 40607199 81.2144%
BRANCH_DIRECT_JUMP: 451601 0.903202%
BRANCH_INDIRECT: 151580 0.30316%
BRANCH_CONDITIONAL: 7041635 14.0833%
BRANCH_DIRECT_CALL: 647827 1.29565%
BRANCH_INDIRECT_CALL: 211373 0.422746%
BRANCH_RETURN: 888439 1.77688%
BRANCH_OTHER: 0 0%

