Initialize SIGNATURE TABLE
ST_SET: 1
ST_WAY: 256
ST_TAG_BIT: 16
ST_TAG_MASK: ffff

Initialize PATTERN TABLE
PT_SET: 512
PT_WAY: 4
SIG_DELTA_BIT: 7
C_SIG_BIT: 4
C_DELTA_BIT: 4

Initialize PREFETCH FILTER
FILTER_SET: 1024

*** ChampSim Multicore Out-of-Order Simulator ***

Warmup Instructions: 50000000
Simulation Instructions: 50000000
Number of CPUs: 1
LLC sets: 2048
LLC ways: 16
Off-chip DRAM Size: 4096 MB Channels: 1 Width: 64-bit Data Rate: 3200 MT/s

CPU 0 runs /Users/gandhardeshpande/Desktop/CSE240C/HW1/ChampSim/ipc1_public/server_038.champsimtrace.xz
CPU 0 L1I next line prefetcher
Running FNL-MMA for L1I
CPU 0 L1D next line prefetcher
Heartbeat CPU 0 instructions: 10000001 cycles: 3321196 heartbeat IPC: 3.01096 cumulative IPC: 3.01096 (Simulation time: 0 hr 0 min 15 sec) 
Heartbeat CPU 0 instructions: 20000003 cycles: 6645371 heartbeat IPC: 3.00827 cumulative IPC: 3.00961 (Simulation time: 0 hr 0 min 30 sec) 
Heartbeat CPU 0 instructions: 30000003 cycles: 9965792 heartbeat IPC: 3.01167 cumulative IPC: 3.0103 (Simulation time: 0 hr 0 min 45 sec) 
Heartbeat CPU 0 instructions: 40000001 cycles: 13290568 heartbeat IPC: 3.00772 cumulative IPC: 3.00965 (Simulation time: 0 hr 1 min 0 sec) 
Heartbeat CPU 0 instructions: 50000001 cycles: 16613303 heartbeat IPC: 3.00957 cumulative IPC: 3.00964 (Simulation time: 0 hr 1 min 16 sec) 

Warmup complete CPU 0 instructions: 50000001 cycles: 16613303 (Simulation time: 0 hr 1 min 16 sec) 

Heartbeat CPU 0 instructions: 60000002 cycles: 23063050 heartbeat IPC: 1.55045 cumulative IPC: 1.55045 (Simulation time: 0 hr 1 min 32 sec) 
Heartbeat CPU 0 instructions: 70000001 cycles: 29464918 heartbeat IPC: 1.56204 cumulative IPC: 1.55622 (Simulation time: 0 hr 1 min 47 sec) 
Heartbeat CPU 0 instructions: 80000000 cycles: 35885164 heartbeat IPC: 1.55757 cumulative IPC: 1.55667 (Simulation time: 0 hr 2 min 3 sec) 
Heartbeat CPU 0 instructions: 90000001 cycles: 42311009 heartbeat IPC: 1.55622 cumulative IPC: 1.55656 (Simulation time: 0 hr 2 min 19 sec) 
*** Reached end of trace for Core: 0 Repeating trace: /Users/gandhardeshpande/Desktop/CSE240C/HW1/ChampSim/ipc1_public/server_038.champsimtrace.xz
Heartbeat CPU 0 instructions: 100000002 cycles: 48754511 heartbeat IPC: 1.55195 cumulative IPC: 1.55564 (Simulation time: 0 hr 2 min 35 sec) 
Finished CPU 0 instructions: 50000001 cycles: 32141208 cumulative IPC: 1.55564 (Simulation time: 0 hr 2 min 35 sec) 

ChampSim completed all CPUs

Region of Interest Statistics

CPU 0 cumulative IPC: 1.55564 instructions: 50000001 cycles: 32141208
L1D TOTAL     ACCESS:   18693046  HIT:   17710668  MISS:     982378
L1D LOAD      ACCESS:    6360371  HIT:    5867041  MISS:     493330
L1D RFO       ACCESS:    6210132  HIT:    6145847  MISS:      64285
L1D PREFETCH  ACCESS:    6122543  HIT:    5697780  MISS:     424763
L1D WRITEBACK ACCESS:          0  HIT:          0  MISS:          0
L1D PREFETCH  REQUESTED:    6397499  ISSUED:    6244791  USEFUL:     118009  USELESS:     306757
L1D AVERAGE MISS LATENCY: 29.4466 cycles
L1I TOTAL     ACCESS:   16622198  HIT:   11538055  MISS:    5084143
L1I LOAD      ACCESS:    9462733  HIT:    9443890  MISS:      18843
L1I RFO       ACCESS:          0  HIT:          0  MISS:          0
L1I PREFETCH  ACCESS:    7159465  HIT:    2094165  MISS:    5065300
L1I WRITEBACK ACCESS:          0  HIT:          0  MISS:          0
L1I PREFETCH  REQUESTED:    7400266  ISSUED:    7400265  USEFUL:    4120195  USELESS:     945126
L1I AVERAGE MISS LATENCY: 14.9656 cycles
L2C TOTAL     ACCESS:    8607443  HIT:    8278718  MISS:     328725
L2C LOAD      ACCESS:     500199  HIT:     355034  MISS:     145165
L2C RFO       ACCESS:      64048  HIT:      36007  MISS:      28041
L2C PREFETCH  ACCESS:    7751434  HIT:    7597085  MISS:     154349
L2C WRITEBACK ACCESS:     291762  HIT:     290592  MISS:       1170
L2C PREFETCH  REQUESTED:    8346175  ISSUED:    8336187  USEFUL:       7650  USELESS:     146585
L2C AVERAGE MISS LATENCY: 45.0117 cycles
LLC TOTAL     ACCESS:    1735647  HIT:    1681307  MISS:      54340
LLC LOAD      ACCESS:     145134  HIT:     132336  MISS:      12798
LLC RFO       ACCESS:      28040  HIT:      22784  MISS:       5256
LLC PREFETCH  ACCESS:    1413361  HIT:    1377527  MISS:      35834
LLC WRITEBACK ACCESS:     149112  HIT:     148660  MISS:        452
LLC PREFETCH  REQUESTED:          0  ISSUED:          0  USEFUL:       3283  USELESS:      32449
LLC AVERAGE MISS LATENCY: 164.927 cycles
Major fault: 0 Minor fault: 5530
I-Shadow cache 408 bytes
Touched + WorthPF tables 3072 bytes 
MMA filter 174 bytes 
FNL filter 272 bytes 
TOTAL PREFETCHER STORAGE SIZE: 13014 bytes
CPU 0 L1I next line prefetcher final stats
CPU 0 L1D next line prefetcher final stats

DRAM Statistics
 CHANNEL 0
 RQ ROW_BUFFER_HIT:       7498  ROW_BUFFER_MISS:      46390
 DBUS_CONGESTED:      25505
 WQ ROW_BUFFER_HIT:       1168  ROW_BUFFER_MISS:      11238  FULL:          0

 AVG_CONGESTED_CYCLE: 5

CPU 0 Branch Prediction Accuracy: 99.9279% MPKI: 0.12968 Average ROB Occupancy at Mispredict: 259.45

Branch types
NOT_BRANCH: 41006324 82.0126%
BRANCH_DIRECT_JUMP: 541914 1.08383%
BRANCH_INDIRECT: 59690 0.11938%
BRANCH_CONDITIONAL: 5915846 11.8317%
BRANCH_DIRECT_CALL: 1003588 2.00718%
BRANCH_INDIRECT_CALL: 234499 0.468998%
BRANCH_RETURN: 1238071 2.47614%
BRANCH_OTHER: 0 0%

