Initialize SIGNATURE TABLE
ST_SET: 1
ST_WAY: 256
ST_TAG_BIT: 16
ST_TAG_MASK: ffff

Initialize PATTERN TABLE
PT_SET: 512
PT_WAY: 4
SIG_DELTA_BIT: 7
C_SIG_BIT: 4
C_DELTA_BIT: 4

Initialize PREFETCH FILTER
FILTER_SET: 1024

*** ChampSim Multicore Out-of-Order Simulator ***

Warmup Instructions: 50000000
Simulation Instructions: 50000000
Number of CPUs: 1
LLC sets: 2048
LLC ways: 16
Off-chip DRAM Size: 4096 MB Channels: 1 Width: 64-bit Data Rate: 3200 MT/s

CPU 0 runs /Users/gandhardeshpande/Desktop/CSE240C/HW1/ChampSim/ipc1_public/server_025.champsimtrace.xz
CPU 0 L1I next line prefetcher
Running FNL-MMA for L1I
CPU 0 L1D next line prefetcher
Heartbeat CPU 0 instructions: 10000003 cycles: 3534275 heartbeat IPC: 2.82944 cumulative IPC: 2.82944 (Simulation time: 0 hr 0 min 15 sec) 
Heartbeat CPU 0 instructions: 20000000 cycles: 7074519 heartbeat IPC: 2.82466 cumulative IPC: 2.82705 (Simulation time: 0 hr 0 min 30 sec) 
Heartbeat CPU 0 instructions: 30000001 cycles: 10606295 heartbeat IPC: 2.83144 cumulative IPC: 2.82851 (Simulation time: 0 hr 0 min 45 sec) 
Heartbeat CPU 0 instructions: 40000003 cycles: 14144932 heartbeat IPC: 2.82595 cumulative IPC: 2.82787 (Simulation time: 0 hr 1 min 0 sec) 
Heartbeat CPU 0 instructions: 50000001 cycles: 17681070 heartbeat IPC: 2.82794 cumulative IPC: 2.82788 (Simulation time: 0 hr 1 min 15 sec) 

Warmup complete CPU 0 instructions: 50000001 cycles: 17681070 (Simulation time: 0 hr 1 min 15 sec) 

Heartbeat CPU 0 instructions: 60000002 cycles: 25450593 heartbeat IPC: 1.28708 cumulative IPC: 1.28708 (Simulation time: 0 hr 1 min 28 sec) 
Heartbeat CPU 0 instructions: 70000000 cycles: 33331554 heartbeat IPC: 1.26888 cumulative IPC: 1.27792 (Simulation time: 0 hr 1 min 42 sec) 
Heartbeat CPU 0 instructions: 80000002 cycles: 41101023 heartbeat IPC: 1.28709 cumulative IPC: 1.28096 (Simulation time: 0 hr 1 min 56 sec) 
Heartbeat CPU 0 instructions: 90000001 cycles: 48321338 heartbeat IPC: 1.38498 cumulative IPC: 1.30547 (Simulation time: 0 hr 2 min 10 sec) 
Heartbeat CPU 0 instructions: 100000003 cycles: 55076923 heartbeat IPC: 1.48026 cumulative IPC: 1.33705 (Simulation time: 0 hr 2 min 24 sec) 
Finished CPU 0 instructions: 50000002 cycles: 37395853 cumulative IPC: 1.33705 (Simulation time: 0 hr 2 min 24 sec) 

ChampSim completed all CPUs

Region of Interest Statistics

CPU 0 cumulative IPC: 1.33705 instructions: 50000002 cycles: 37395853
L1D TOTAL     ACCESS:   20518876  HIT:   19092961  MISS:    1425915
L1D LOAD      ACCESS:    7219708  HIT:    6601887  MISS:     617821
L1D RFO       ACCESS:    6388006  HIT:    6139322  MISS:     248684
L1D PREFETCH  ACCESS:    6911162  HIT:    6351752  MISS:     559410
L1D WRITEBACK ACCESS:          0  HIT:          0  MISS:          0
L1D PREFETCH  REQUESTED:    7264403  ISSUED:    7094175  USEFUL:     132021  USELESS:     427384
L1D AVERAGE MISS LATENCY: 26.2967 cycles
L1I TOTAL     ACCESS:   13877378  HIT:    9988587  MISS:    3888791
L1I LOAD      ACCESS:    9311272  HIT:    8560631  MISS:     750641
L1I RFO       ACCESS:          0  HIT:          0  MISS:          0
L1I PREFETCH  ACCESS:    4566106  HIT:    1427956  MISS:    3138150
L1I WRITEBACK ACCESS:          0  HIT:          0  MISS:          0
L1I PREFETCH  REQUESTED:    5039770  ISSUED:    5039618  USEFUL:    1821673  USELESS:    1316495
L1I AVERAGE MISS LATENCY: 21.1092 cycles
L2C TOTAL     ACCESS:    7059418  HIT:    5743323  MISS:    1316095
L2C LOAD      ACCESS:    1193807  HIT:     863339  MISS:     330468
L2C RFO       ACCESS:     246725  HIT:     142499  MISS:     104226
L2C PREFETCH  ACCESS:    5122004  HIT:    4249440  MISS:     872564
L2C WRITEBACK ACCESS:     496882  HIT:     488045  MISS:       8837
L2C PREFETCH  REQUESTED:    6257517  ISSUED:    6254294  USEFUL:      34549  USELESS:     837780
L2C AVERAGE MISS LATENCY: 36.6237 cycles
LLC TOTAL     ACCESS:    2725165  HIT:    2693326  MISS:      31839
LLC LOAD      ACCESS:     330277  HIT:     326603  MISS:       3674
LLC RFO       ACCESS:     104060  HIT:      93286  MISS:      10774
LLC PREFETCH  ACCESS:    2104072  HIT:    2086808  MISS:      17264
LLC WRITEBACK ACCESS:     186756  HIT:     186629  MISS:        127
LLC PREFETCH  REQUESTED:          0  ISSUED:          0  USEFUL:       1255  USELESS:      14862
LLC AVERAGE MISS LATENCY: 178.521 cycles
Major fault: 0 Minor fault: 2465
I-Shadow cache 408 bytes
Touched + WorthPF tables 3072 bytes 
MMA filter 174 bytes 
FNL filter 272 bytes 
TOTAL PREFETCHER STORAGE SIZE: 13014 bytes
CPU 0 L1I next line prefetcher final stats
CPU 0 L1D next line prefetcher final stats

DRAM Statistics
 CHANNEL 0
 RQ ROW_BUFFER_HIT:       9739  ROW_BUFFER_MISS:      21968
 DBUS_CONGESTED:      19969
 WQ ROW_BUFFER_HIT:       1459  ROW_BUFFER_MISS:      12152  FULL:          0

 AVG_CONGESTED_CYCLE: 6

CPU 0 Branch Prediction Accuracy: 99.8142% MPKI: 0.34676 Average ROB Occupancy at Mispredict: 165.261

Branch types
NOT_BRANCH: 40668680 81.3374%
BRANCH_DIRECT_JUMP: 531697 1.06339%
BRANCH_INDIRECT: 199023 0.398046%
BRANCH_CONDITIONAL: 6211454 12.4229%
BRANCH_DIRECT_CALL: 1010905 2.02181%
BRANCH_INDIRECT_CALL: 183501 0.367002%
BRANCH_RETURN: 1194407 2.38881%
BRANCH_OTHER: 0 0%

