Initialize SIGNATURE TABLE
ST_SET: 1
ST_WAY: 256
ST_TAG_BIT: 16
ST_TAG_MASK: ffff

Initialize PATTERN TABLE
PT_SET: 512
PT_WAY: 4
SIG_DELTA_BIT: 7
C_SIG_BIT: 4
C_DELTA_BIT: 4

Initialize PREFETCH FILTER
FILTER_SET: 1024

*** ChampSim Multicore Out-of-Order Simulator ***

Warmup Instructions: 50000000
Simulation Instructions: 50000000
Number of CPUs: 1
LLC sets: 2048
LLC ways: 16
Off-chip DRAM Size: 4096 MB Channels: 1 Width: 64-bit Data Rate: 3200 MT/s

CPU 0 runs /Users/gandhardeshpande/Desktop/CSE240C/HW1/ChampSim/ipc1_public/spec_gcc_002.champsimtrace.xz
CPU 0 L1I next line prefetcher
Running FNL-MMA for L1I
CPU 0 L1D next line prefetcher
Heartbeat CPU 0 instructions: 10000002 cycles: 3592717 heartbeat IPC: 2.78341 cumulative IPC: 2.78341 (Simulation time: 0 hr 0 min 11 sec) 
Heartbeat CPU 0 instructions: 20000000 cycles: 7183924 heartbeat IPC: 2.78458 cumulative IPC: 2.78399 (Simulation time: 0 hr 0 min 22 sec) 
Heartbeat CPU 0 instructions: 30000000 cycles: 10840256 heartbeat IPC: 2.73498 cumulative IPC: 2.76746 (Simulation time: 0 hr 0 min 34 sec) 
Heartbeat CPU 0 instructions: 40000000 cycles: 14413839 heartbeat IPC: 2.79831 cumulative IPC: 2.77511 (Simulation time: 0 hr 0 min 45 sec) 
Heartbeat CPU 0 instructions: 50000002 cycles: 17897343 heartbeat IPC: 2.87067 cumulative IPC: 2.79371 (Simulation time: 0 hr 0 min 55 sec) 

Warmup complete CPU 0 instructions: 50000002 cycles: 17897343 (Simulation time: 0 hr 0 min 55 sec) 

Heartbeat CPU 0 instructions: 60000001 cycles: 50164103 heartbeat IPC: 0.309916 cumulative IPC: 0.309916 (Simulation time: 0 hr 1 min 18 sec) 
Heartbeat CPU 0 instructions: 70000001 cycles: 81434081 heartbeat IPC: 0.319796 cumulative IPC: 0.314779 (Simulation time: 0 hr 1 min 40 sec) 
Heartbeat CPU 0 instructions: 80000002 cycles: 127737803 heartbeat IPC: 0.215965 cumulative IPC: 0.273123 (Simulation time: 0 hr 2 min 9 sec) 
Heartbeat CPU 0 instructions: 90000001 cycles: 169545207 heartbeat IPC: 0.239192 cumulative IPC: 0.263769 (Simulation time: 0 hr 2 min 36 sec) 
Heartbeat CPU 0 instructions: 100000000 cycles: 193096183 heartbeat IPC: 0.424611 cumulative IPC: 0.28539 (Simulation time: 0 hr 2 min 56 sec) 
Finished CPU 0 instructions: 50000002 cycles: 175199237 cumulative IPC: 0.285389 (Simulation time: 0 hr 2 min 56 sec) 

ChampSim completed all CPUs

Region of Interest Statistics

CPU 0 cumulative IPC: 0.285389 instructions: 50000002 cycles: 175199237
L1D TOTAL     ACCESS:   18464269  HIT:   13230556  MISS:    5233713
L1D LOAD      ACCESS:    6418125  HIT:    5405335  MISS:    1012790
L1D RFO       ACCESS:    7085964  HIT:    3485305  MISS:    3600659
L1D PREFETCH  ACCESS:    4960180  HIT:    4339916  MISS:     620264
L1D WRITEBACK ACCESS:          0  HIT:          0  MISS:          0
L1D PREFETCH  REQUESTED:    6438247  ISSUED:    6369162  USEFUL:     460418  USELESS:     160062
L1D AVERAGE MISS LATENCY: 316.22 cycles
L1I TOTAL     ACCESS:   13670257  HIT:   12586057  MISS:    1084200
L1I LOAD      ACCESS:   12013220  HIT:   11783509  MISS:     229711
L1I RFO       ACCESS:          0  HIT:          0  MISS:          0
L1I PREFETCH  ACCESS:    1657037  HIT:     802548  MISS:     854489
L1I WRITEBACK ACCESS:          0  HIT:          0  MISS:          0
L1I PREFETCH  REQUESTED:    1817940  ISSUED:    1817504  USEFUL:     483072  USELESS:     371420
L1I AVERAGE MISS LATENCY: 52.8255 cycles
L2C TOTAL     ACCESS:   10459740  HIT:    5079835  MISS:    5379905
L2C LOAD      ACCESS:     441864  HIT:     215518  MISS:     226346
L2C RFO       ACCESS:    3599137  HIT:      11042  MISS:    3588095
L2C PREFETCH  ACCESS:    2693232  HIT:    1127975  MISS:    1565257
L2C WRITEBACK ACCESS:    3725507  HIT:    3725300  MISS:        207
L2C PREFETCH  REQUESTED:    3728024  ISSUED:    3727948  USEFUL:      42383  USELESS:    1523028
L2C AVERAGE MISS LATENCY: 316.107 cycles
LLC TOTAL     ACCESS:   10248916  HIT:    7037922  MISS:    3210994
LLC LOAD      ACCESS:     226218  HIT:     162769  MISS:      63449
LLC RFO       ACCESS:    3588096  HIT:     941157  MISS:    2646939
LLC PREFETCH  ACCESS:    2761080  HIT:    2260474  MISS:     500606
LLC WRITEBACK ACCESS:    3673522  HIT:    3673522  MISS:          0
LLC PREFETCH  REQUESTED:          0  ISSUED:          0  USEFUL:     192672  USELESS:     308845
LLC AVERAGE MISS LATENCY: 496.49 cycles
Major fault: 0 Minor fault: 4154
I-Shadow cache 408 bytes
Touched + WorthPF tables 3072 bytes 
MMA filter 174 bytes 
FNL filter 272 bytes 
TOTAL PREFETCHER STORAGE SIZE: 13014 bytes
CPU 0 L1I next line prefetcher final stats
CPU 0 L1D next line prefetcher final stats

DRAM Statistics
 CHANNEL 0
 RQ ROW_BUFFER_HIT:     867930  ROW_BUFFER_MISS:    2340738
 DBUS_CONGESTED:    4954348
 WQ ROW_BUFFER_HIT:     809460  ROW_BUFFER_MISS:    2045451  FULL:          0

 AVG_CONGESTED_CYCLE: 6

CPU 0 Branch Prediction Accuracy: 99.5987% MPKI: 0.82446 Average ROB Occupancy at Mispredict: 117.896

Branch types
NOT_BRANCH: 39726807 79.4536%
BRANCH_DIRECT_JUMP: 391439 0.782878%
BRANCH_INDIRECT: 62076 0.124152%
BRANCH_CONDITIONAL: 8421541 16.8431%
BRANCH_DIRECT_CALL: 672962 1.34592%
BRANCH_INDIRECT_CALL: 26115 0.05223%
BRANCH_RETURN: 699082 1.39816%
BRANCH_OTHER: 0 0%

