
*** ChampSim Multicore Out-of-Order Simulator ***

Warmup Instructions: 10000000
Simulation Instructions: 100000000
Configuration: 1
Number of CPUs: 1
LLC sets: 2048
LLC ways: 16
Off-chip DRAM Channels: 1 Width: 64-bit Data Rate: 1600 MT/s

CPU 0 runs /datasets/cs240c-wi22-a00-public/data/Assignment2-gz/omnetpp_17B.trace.gz
Heartbeat CPU 0 instructions: 1000000 cycles: 559780 heartbeat IPC: 1.78642 cumulative IPC: 1.78642 (Simulation time: 0 hr 0 min 17 sec) 
select_counter is 466
Heartbeat CPU 0 instructions: 2000002 cycles: 1133949 heartbeat IPC: 1.74165 cumulative IPC: 1.76375 (Simulation time: 0 hr 0 min 34 sec) 
select_counter is 787
Heartbeat CPU 0 instructions: 3000001 cycles: 1769163 heartbeat IPC: 1.57427 cumulative IPC: 1.69572 (Simulation time: 0 hr 0 min 49 sec) 
select_counter is 750
Heartbeat CPU 0 instructions: 4000000 cycles: 2334145 heartbeat IPC: 1.76997 cumulative IPC: 1.71369 (Simulation time: 0 hr 1 min 7 sec) 
select_counter is 530
Heartbeat CPU 0 instructions: 5000002 cycles: 2893047 heartbeat IPC: 1.78923 cumulative IPC: 1.72828 (Simulation time: 0 hr 1 min 25 sec) 
select_counter is 334
Heartbeat CPU 0 instructions: 6000000 cycles: 3471505 heartbeat IPC: 1.72873 cumulative IPC: 1.72836 (Simulation time: 0 hr 1 min 41 sec) 
select_counter is 99
Heartbeat CPU 0 instructions: 7000000 cycles: 4035630 heartbeat IPC: 1.77266 cumulative IPC: 1.73455 (Simulation time: 0 hr 1 min 59 sec) 
select_counter is 961
Heartbeat CPU 0 instructions: 8000000 cycles: 4697371 heartbeat IPC: 1.51117 cumulative IPC: 1.70308 (Simulation time: 0 hr 2 min 15 sec) 
select_counter is 953
Heartbeat CPU 0 instructions: 9000000 cycles: 5359202 heartbeat IPC: 1.51096 cumulative IPC: 1.67935 (Simulation time: 0 hr 2 min 31 sec) 
select_counter is 952
Heartbeat CPU 0 instructions: 10000001 cycles: 6020793 heartbeat IPC: 1.51151 cumulative IPC: 1.66091 (Simulation time: 0 hr 2 min 47 sec) 
select_counter is 948

Warmup complete CPU 0 instructions: 10000001 cycles: 6020793 (Simulation time: 0 hr 2 min 47 sec) 

Heartbeat CPU 0 instructions: 11000001 cycles: 7067055 heartbeat IPC: 0.955784 cumulative IPC: 0.955784 (Simulation time: 0 hr 3 min 3 sec) 
select_counter is 942
Heartbeat CPU 0 instructions: 12000000 cycles: 8112554 heartbeat IPC: 0.95648 cumulative IPC: 0.956132 (Simulation time: 0 hr 3 min 20 sec) 
select_counter is 937
Heartbeat CPU 0 instructions: 13000000 cycles: 9183976 heartbeat IPC: 0.933339 cumulative IPC: 0.948411 (Simulation time: 0 hr 3 min 36 sec) 
select_counter is 926
Heartbeat CPU 0 instructions: 14000001 cycles: 10229589 heartbeat IPC: 0.956378 cumulative IPC: 0.950391 (Simulation time: 0 hr 3 min 52 sec) 
select_counter is 923
Heartbeat CPU 0 instructions: 15000000 cycles: 11274365 heartbeat IPC: 0.957142 cumulative IPC: 0.951733 (Simulation time: 0 hr 4 min 8 sec) 
select_counter is 918
Heartbeat CPU 0 instructions: 16000000 cycles: 12319728 heartbeat IPC: 0.956605 cumulative IPC: 0.952542 (Simulation time: 0 hr 4 min 24 sec) 
select_counter is 914
Heartbeat CPU 0 instructions: 17000000 cycles: 13367002 heartbeat IPC: 0.95486 cumulative IPC: 0.952872 (Simulation time: 0 hr 4 min 40 sec) 
select_counter is 912
Heartbeat CPU 0 instructions: 18000001 cycles: 14409366 heartbeat IPC: 0.959359 cumulative IPC: 0.953678 (Simulation time: 0 hr 4 min 56 sec) 
select_counter is 908
Heartbeat CPU 0 instructions: 19000002 cycles: 15445342 heartbeat IPC: 0.965274 cumulative IPC: 0.954953 (Simulation time: 0 hr 5 min 12 sec) 
select_counter is 903
Heartbeat CPU 0 instructions: 20000000 cycles: 18887266 heartbeat IPC: 0.290535 cumulative IPC: 0.777214 (Simulation time: 0 hr 5 min 32 sec) 
select_counter is 424
Heartbeat CPU 0 instructions: 21000000 cycles: 21346043 heartbeat IPC: 0.406706 cumulative IPC: 0.71777 (Simulation time: 0 hr 5 min 50 sec) 
select_counter is 85
Heartbeat CPU 0 instructions: 22000002 cycles: 23187333 heartbeat IPC: 0.543099 cumulative IPC: 0.699034 (Simulation time: 0 hr 6 min 7 sec) 
select_counter is 76
Heartbeat CPU 0 instructions: 23000000 cycles: 26475436 heartbeat IPC: 0.304126 cumulative IPC: 0.635552 (Simulation time: 0 hr 6 min 28 sec) 
select_counter is 808
Heartbeat CPU 0 instructions: 24000000 cycles: 29853312 heartbeat IPC: 0.296044 cumulative IPC: 0.587433 (Simulation time: 0 hr 6 min 48 sec) 
select_counter is 496
Heartbeat CPU 0 instructions: 25000001 cycles: 32483187 heartbeat IPC: 0.380247 cumulative IPC: 0.566842 (Simulation time: 0 hr 7 min 7 sec) 
select_counter is 180
Heartbeat CPU 0 instructions: 26000001 cycles: 34157168 heartbeat IPC: 0.597378 cumulative IPC: 0.568659 (Simulation time: 0 hr 7 min 24 sec) 
select_counter is 195
Heartbeat CPU 0 instructions: 27000000 cycles: 37429822 heartbeat IPC: 0.305562 cumulative IPC: 0.541246 (Simulation time: 0 hr 7 min 43 sec) 
select_counter is 926
Heartbeat CPU 0 instructions: 28000000 cycles: 40815048 heartbeat IPC: 0.295401 cumulative IPC: 0.517327 (Simulation time: 0 hr 8 min 3 sec) 
select_counter is 621
Heartbeat CPU 0 instructions: 29000000 cycles: 43666690 heartbeat IPC: 0.350675 cumulative IPC: 0.504703 (Simulation time: 0 hr 8 min 22 sec) 
select_counter is 325
Heartbeat CPU 0 instructions: 30000000 cycles: 45156963 heartbeat IPC: 0.671018 cumulative IPC: 0.511036 (Simulation time: 0 hr 8 min 39 sec) 
select_counter is 314
Heartbeat CPU 0 instructions: 31000000 cycles: 48409982 heartbeat IPC: 0.307407 cumulative IPC: 0.495409 (Simulation time: 0 hr 8 min 58 sec) 
select_counter is 970
Heartbeat CPU 0 instructions: 32000000 cycles: 51767308 heartbeat IPC: 0.297856 cumulative IPC: 0.480911 (Simulation time: 0 hr 9 min 18 sec) 
select_counter is 650
Heartbeat CPU 0 instructions: 33000001 cycles: 54809107 heartbeat IPC: 0.328753 cumulative IPC: 0.471424 (Simulation time: 0 hr 9 min 37 sec) 
select_counter is 361
Heartbeat CPU 0 instructions: 34000000 cycles: 56115402 heartbeat IPC: 0.765523 cumulative IPC: 0.479093 (Simulation time: 0 hr 9 min 54 sec) 
select_counter is 329
Heartbeat CPU 0 instructions: 35000003 cycles: 59358223 heartbeat IPC: 0.308374 cumulative IPC: 0.468714 (Simulation time: 0 hr 10 min 14 sec) 
select_counter is 1020
Heartbeat CPU 0 instructions: 36000000 cycles: 62708710 heartbeat IPC: 0.298463 cumulative IPC: 0.458652 (Simulation time: 0 hr 10 min 33 sec) 
select_counter is 686
Heartbeat CPU 0 instructions: 37000001 cycles: 65668211 heartbeat IPC: 0.337895 cumulative IPC: 0.45266 (Simulation time: 0 hr 10 min 52 sec) 
select_counter is 391
Heartbeat CPU 0 instructions: 38000000 cycles: 67091991 heartbeat IPC: 0.702355 cumulative IPC: 0.458481 (Simulation time: 0 hr 11 min 10 sec) 
select_counter is 363
Heartbeat CPU 0 instructions: 39000000 cycles: 70344427 heartbeat IPC: 0.307462 cumulative IPC: 0.450845 (Simulation time: 0 hr 11 min 30 sec) 
select_counter is 11
Heartbeat CPU 0 instructions: 40000000 cycles: 73656607 heartbeat IPC: 0.301916 cumulative IPC: 0.443552 (Simulation time: 0 hr 11 min 51 sec) 
select_counter is 697
Heartbeat CPU 0 instructions: 41000002 cycles: 76506610 heartbeat IPC: 0.350878 cumulative IPC: 0.439805 (Simulation time: 0 hr 12 min 9 sec) 
select_counter is 391
Heartbeat CPU 0 instructions: 42000000 cycles: 78021778 heartbeat IPC: 0.659992 cumulative IPC: 0.444438 (Simulation time: 0 hr 12 min 29 sec) 
select_counter is 376
Heartbeat CPU 0 instructions: 43000003 cycles: 83368371 heartbeat IPC: 0.187036 cumulative IPC: 0.426646 (Simulation time: 0 hr 12 min 54 sec) 
select_counter is 830
Heartbeat CPU 0 instructions: 44000000 cycles: 84416411 heartbeat IPC: 0.954159 cumulative IPC: 0.433698 (Simulation time: 0 hr 13 min 11 sec) 
select_counter is 826
Heartbeat CPU 0 instructions: 45000003 cycles: 85460330 heartbeat IPC: 0.957932 cumulative IPC: 0.440587 (Simulation time: 0 hr 13 min 28 sec) 
select_counter is 820
Heartbeat CPU 0 instructions: 46000001 cycles: 86504427 heartbeat IPC: 0.957763 cumulative IPC: 0.447296 (Simulation time: 0 hr 13 min 44 sec) 
select_counter is 815
Heartbeat CPU 0 instructions: 47000001 cycles: 87549658 heartbeat IPC: 0.956726 cumulative IPC: 0.453827 (Simulation time: 0 hr 14 min 1 sec) 
select_counter is 813
Heartbeat CPU 0 instructions: 48000000 cycles: 88594128 heartbeat IPC: 0.957422 cumulative IPC: 0.460197 (Simulation time: 0 hr 14 min 18 sec) 
select_counter is 804
Heartbeat CPU 0 instructions: 49000000 cycles: 89636751 heartbeat IPC: 0.959119 cumulative IPC: 0.466418 (Simulation time: 0 hr 14 min 34 sec) 
select_counter is 799
Heartbeat CPU 0 instructions: 50000000 cycles: 90680382 heartbeat IPC: 0.958193 cumulative IPC: 0.47248 (Simulation time: 0 hr 14 min 50 sec) 
select_counter is 794
Heartbeat CPU 0 instructions: 51000002 cycles: 91724948 heartbeat IPC: 0.957337 cumulative IPC: 0.47839 (Simulation time: 0 hr 15 min 6 sec) 
select_counter is 792
Heartbeat CPU 0 instructions: 52000000 cycles: 92769933 heartbeat IPC: 0.95695 cumulative IPC: 0.484155 (Simulation time: 0 hr 15 min 22 sec) 
select_counter is 787
Heartbeat CPU 0 instructions: 53000001 cycles: 93813863 heartbeat IPC: 0.95792 cumulative IPC: 0.489788 (Simulation time: 0 hr 15 min 39 sec) 
select_counter is 780
Heartbeat CPU 0 instructions: 54000002 cycles: 94883500 heartbeat IPC: 0.934898 cumulative IPC: 0.495146 (Simulation time: 0 hr 15 min 55 sec) 
select_counter is 774
Heartbeat CPU 0 instructions: 55000003 cycles: 95924052 heartbeat IPC: 0.961029 cumulative IPC: 0.500538 (Simulation time: 0 hr 16 min 11 sec) 
select_counter is 766
Heartbeat CPU 0 instructions: 56000000 cycles: 98253410 heartbeat IPC: 0.429302 cumulative IPC: 0.498739 (Simulation time: 0 hr 16 min 30 sec) 
select_counter is 422
Heartbeat CPU 0 instructions: 57000003 cycles: 100291603 heartbeat IPC: 0.490632 cumulative IPC: 0.498564 (Simulation time: 0 hr 16 min 47 sec) 
select_counter is 346
Heartbeat CPU 0 instructions: 58000000 cycles: 103560564 heartbeat IPC: 0.305907 cumulative IPC: 0.492107 (Simulation time: 0 hr 17 min 8 sec) 
select_counter is 969
Heartbeat CPU 0 instructions: 59000003 cycles: 106889047 heartbeat IPC: 0.300438 cumulative IPC: 0.485782 (Simulation time: 0 hr 17 min 28 sec) 
select_counter is 636
Heartbeat CPU 0 instructions: 60000000 cycles: 109347888 heartbeat IPC: 0.406694 cumulative IPC: 0.4839 (Simulation time: 0 hr 17 min 47 sec) 
select_counter is 297
Heartbeat CPU 0 instructions: 61000001 cycles: 111220926 heartbeat IPC: 0.533893 cumulative IPC: 0.48479 (Simulation time: 0 hr 18 min 4 sec) 
select_counter is 289
Heartbeat CPU 0 instructions: 62000001 cycles: 114479199 heartbeat IPC: 0.306911 cumulative IPC: 0.479446 (Simulation time: 0 hr 18 min 25 sec) 
select_counter is 951
Heartbeat CPU 0 instructions: 63000000 cycles: 117831091 heartbeat IPC: 0.298339 cumulative IPC: 0.474017 (Simulation time: 0 hr 18 min 46 sec) 
select_counter is 619
Heartbeat CPU 0 instructions: 64000000 cycles: 120460738 heartbeat IPC: 0.380279 cumulative IPC: 0.471863 (Simulation time: 0 hr 19 min 5 sec) 
select_counter is 281
Heartbeat CPU 0 instructions: 65000000 cycles: 122172250 heartbeat IPC: 0.584279 cumulative IPC: 0.47352 (Simulation time: 0 hr 19 min 23 sec) 
select_counter is 272
Heartbeat CPU 0 instructions: 66000000 cycles: 125429537 heartbeat IPC: 0.307004 cumulative IPC: 0.468977 (Simulation time: 0 hr 19 min 44 sec) 
select_counter is 940
Heartbeat CPU 0 instructions: 67000001 cycles: 128788316 heartbeat IPC: 0.297728 cumulative IPC: 0.464292 (Simulation time: 0 hr 20 min 4 sec) 
select_counter is 610
Heartbeat CPU 0 instructions: 68000000 cycles: 131588484 heartbeat IPC: 0.357121 cumulative IPC: 0.461902 (Simulation time: 0 hr 20 min 24 sec) 
select_counter is 290
Heartbeat CPU 0 instructions: 69000001 cycles: 133122095 heartbeat IPC: 0.652057 cumulative IPC: 0.464197 (Simulation time: 0 hr 20 min 41 sec) 
select_counter is 267
Heartbeat CPU 0 instructions: 70000001 cycles: 136382167 heartbeat IPC: 0.306742 cumulative IPC: 0.460259 (Simulation time: 0 hr 21 min 1 sec) 
select_counter is 935
Heartbeat CPU 0 instructions: 71000001 cycles: 139726929 heartbeat IPC: 0.298975 cumulative IPC: 0.456224 (Simulation time: 0 hr 21 min 22 sec) 
select_counter is 586
Heartbeat CPU 0 instructions: 72000000 cycles: 142528117 heartbeat IPC: 0.356991 cumulative IPC: 0.454188 (Simulation time: 0 hr 21 min 42 sec) 
select_counter is 246
Heartbeat CPU 0 instructions: 73000000 cycles: 144067532 heartbeat IPC: 0.649597 cumulative IPC: 0.456367 (Simulation time: 0 hr 21 min 59 sec) 
select_counter is 222
Heartbeat CPU 0 instructions: 74000003 cycles: 147336016 heartbeat IPC: 0.305953 cumulative IPC: 0.452888 (Simulation time: 0 hr 22 min 20 sec) 
select_counter is 887
Heartbeat CPU 0 instructions: 75000001 cycles: 150716540 heartbeat IPC: 0.295812 cumulative IPC: 0.449218 (Simulation time: 0 hr 22 min 42 sec) 
select_counter is 550
Heartbeat CPU 0 instructions: 76000000 cycles: 153393822 heartbeat IPC: 0.373513 cumulative IPC: 0.447843 (Simulation time: 0 hr 23 min 1 sec) 
select_counter is 216
Heartbeat CPU 0 instructions: 77000001 cycles: 155025560 heartbeat IPC: 0.612844 cumulative IPC: 0.44965 (Simulation time: 0 hr 23 min 19 sec) 
select_counter is 187
Heartbeat CPU 0 instructions: 78000000 cycles: 158306621 heartbeat IPC: 0.304779 cumulative IPC: 0.446529 (Simulation time: 0 hr 23 min 40 sec) 
select_counter is 865
Heartbeat CPU 0 instructions: 79000000 cycles: 161849844 heartbeat IPC: 0.282229 cumulative IPC: 0.442793 (Simulation time: 0 hr 24 min 3 sec) 
select_counter is 509
Heartbeat CPU 0 instructions: 80000000 cycles: 163731439 heartbeat IPC: 0.531464 cumulative IPC: 0.443851 (Simulation time: 0 hr 24 min 21 sec) 
select_counter is 305
Heartbeat CPU 0 instructions: 81000001 cycles: 166165719 heartbeat IPC: 0.4108 cumulative IPC: 0.443348 (Simulation time: 0 hr 24 min 40 sec) 
select_counter is 155
Heartbeat CPU 0 instructions: 82000000 cycles: 169444160 heartbeat IPC: 0.305023 cumulative IPC: 0.440573 (Simulation time: 0 hr 25 min 0 sec) 
select_counter is 840
Heartbeat CPU 0 instructions: 83000000 cycles: 172831073 heartbeat IPC: 0.295254 cumulative IPC: 0.437623 (Simulation time: 0 hr 25 min 21 sec) 
select_counter is 509
Heartbeat CPU 0 instructions: 84000000 cycles: 174675779 heartbeat IPC: 0.542092 cumulative IPC: 0.438766 (Simulation time: 0 hr 25 min 40 sec) 
select_counter is 296
Heartbeat CPU 0 instructions: 85000003 cycles: 177135829 heartbeat IPC: 0.406497 cumulative IPC: 0.438302 (Simulation time: 0 hr 26 min 0 sec) 
select_counter is 160
Heartbeat CPU 0 instructions: 86000001 cycles: 180423844 heartbeat IPC: 0.304134 cumulative IPC: 0.435772 (Simulation time: 0 hr 26 min 20 sec) 
select_counter is 844
Heartbeat CPU 0 instructions: 87000000 cycles: 183806447 heartbeat IPC: 0.29563 cumulative IPC: 0.433106 (Simulation time: 0 hr 26 min 41 sec) 
select_counter is 502
Heartbeat CPU 0 instructions: 88000000 cycles: 185500498 heartbeat IPC: 0.590301 cumulative IPC: 0.43459 (Simulation time: 0 hr 26 min 58 sec) 
select_counter is 337
Heartbeat CPU 0 instructions: 89000000 cycles: 190185669 heartbeat IPC: 0.213439 cumulative IPC: 0.428963 (Simulation time: 0 hr 27 min 20 sec) 
select_counter is 956
Heartbeat CPU 0 instructions: 90000002 cycles: 191230575 heartbeat IPC: 0.957026 cumulative IPC: 0.431943 (Simulation time: 0 hr 27 min 37 sec) 
select_counter is 952
Heartbeat CPU 0 instructions: 91000001 cycles: 192275757 heartbeat IPC: 0.95677 cumulative IPC: 0.434888 (Simulation time: 0 hr 27 min 54 sec) 
select_counter is 945
Heartbeat CPU 0 instructions: 92000000 cycles: 193320422 heartbeat IPC: 0.957244 cumulative IPC: 0.437801 (Simulation time: 0 hr 28 min 10 sec) 
select_counter is 941
Heartbeat CPU 0 instructions: 93000002 cycles: 194365348 heartbeat IPC: 0.957007 cumulative IPC: 0.440682 (Simulation time: 0 hr 28 min 27 sec) 
select_counter is 937
Heartbeat CPU 0 instructions: 94000001 cycles: 195409670 heartbeat IPC: 0.957558 cumulative IPC: 0.443532 (Simulation time: 0 hr 28 min 43 sec) 
select_counter is 931
Heartbeat CPU 0 instructions: 95000000 cycles: 196454417 heartbeat IPC: 0.957169 cumulative IPC: 0.44635 (Simulation time: 0 hr 28 min 59 sec) 
select_counter is 923
Heartbeat CPU 0 instructions: 96000000 cycles: 197500481 heartbeat IPC: 0.955964 cumulative IPC: 0.449134 (Simulation time: 0 hr 29 min 15 sec) 
select_counter is 918
Heartbeat CPU 0 instructions: 97000002 cycles: 198572695 heartbeat IPC: 0.932652 cumulative IPC: 0.451826 (Simulation time: 0 hr 29 min 31 sec) 
select_counter is 909
Heartbeat CPU 0 instructions: 98000000 cycles: 199618963 heartbeat IPC: 0.955776 cumulative IPC: 0.45455 (Simulation time: 0 hr 29 min 47 sec) 
select_counter is 906
Heartbeat CPU 0 instructions: 99000003 cycles: 200658713 heartbeat IPC: 0.961773 cumulative IPC: 0.457259 (Simulation time: 0 hr 30 min 4 sec) 
select_counter is 902
Heartbeat CPU 0 instructions: 100000000 cycles: 201696461 heartbeat IPC: 0.963622 cumulative IPC: 0.459945 (Simulation time: 0 hr 30 min 20 sec) 
select_counter is 897
Heartbeat CPU 0 instructions: 101000001 cycles: 202738563 heartbeat IPC: 0.9596 cumulative IPC: 0.462592 (Simulation time: 0 hr 30 min 35 sec) 
select_counter is 890
Heartbeat CPU 0 instructions: 102000001 cycles: 206063944 heartbeat IPC: 0.300717 cumulative IPC: 0.459901 (Simulation time: 0 hr 30 min 55 sec) 
select_counter is 501
Heartbeat CPU 0 instructions: 103000001 cycles: 207489429 heartbeat IPC: 0.701516 cumulative IPC: 0.46161 (Simulation time: 0 hr 31 min 11 sec) 
select_counter is 395
Heartbeat CPU 0 instructions: 104000000 cycles: 210418016 heartbeat IPC: 0.341461 cumulative IPC: 0.459889 (Simulation time: 0 hr 31 min 30 sec) 
select_counter is 139
Heartbeat CPU 0 instructions: 105000000 cycles: 213693545 heartbeat IPC: 0.305294 cumulative IPC: 0.45745 (Simulation time: 0 hr 31 min 49 sec) 
select_counter is 856
Heartbeat CPU 0 instructions: 106000000 cycles: 217021808 heartbeat IPC: 0.300457 cumulative IPC: 0.454974 (Simulation time: 0 hr 32 min 9 sec) 
select_counter is 552
Heartbeat CPU 0 instructions: 107000001 cycles: 218611847 heartbeat IPC: 0.628916 cumulative IPC: 0.456275 (Simulation time: 0 hr 32 min 27 sec) 
select_counter is 418
Heartbeat CPU 0 instructions: 108000000 cycles: 221382955 heartbeat IPC: 0.360866 cumulative IPC: 0.455047 (Simulation time: 0 hr 32 min 47 sec) 
select_counter is 227
Heartbeat CPU 0 instructions: 109000000 cycles: 224658543 heartbeat IPC: 0.305289 cumulative IPC: 0.452804 (Simulation time: 0 hr 33 min 7 sec) 
select_counter is 924
Heartbeat CPU 0 instructions: 110000000 cycles: 227993933 heartbeat IPC: 0.299815 cumulative IPC: 0.450505 (Simulation time: 0 hr 33 min 26 sec) 
select_counter is 604
Finished CPU 0 instructions: 100000003 cycles: 221973145 cummulative IPC: 0.450505 (Simulation time: 0 hr 33 min 26 sec) 

ChampSim completed all CPUs

Region of Interest Statistics

CPU 0 cummulative IPC: 0.450505 instructions: 100000003 cycles: 221973145
LLC TOTAL     ACCESS:    1769069  HIT:    1388752  MISS:     380317
LLC LOAD      ACCESS:    1739414  HIT:    1378292  MISS:     361122
LLC RFO       ACCESS:      12908  HIT:       2278  MISS:      10630
LLC PREFETCH  ACCESS:          0  HIT:          0  MISS:          0
LLC WRITEBACK ACCESS:      16747  HIT:       8182  MISS:       8565
Ship samples: 
9, 44, 76, 101, 128, 167, 195, 236, 260, 297, 333, 363, 391, 420, 453, 487, 517, 544, 579, 612, 640, 684, 717, 750, 777, 804, 836, 872, 908, 941, 965, 1004, 1034, 1056, 1094, 1122, 1164, 1189, 1228, 1253, 1288, 1315, 1356, 1389, 1421, 1445, 1484, 1511, 1547, 1575, 1612, 1640, 1668, 1707, 1742, 1771, 1797, 1837, 1866, 1892, 1921, 1960, 1987, 2027, 
Lime duel samples: 
8, 17, 45, 61, 64, 90, 98, 118, 137, 152, 171, 187, 199, 210, 225, 242, 262, 282, 296, 307, 326, 341, 356, 382, 387, 408, 422, 442, 448, 477, 482, 505, 523, 540, 550, 566, 589, 597, 608, 624, 643, 658, 683, 688, 713, 724, 742, 764, 779, 790, 801, 829, 840, 849, 864, 890, 904, 918, 930, 945, 964, 984, 1003, 1019, 1037, 1041, 1062, 1077, 1099, 1110, 1134, 1150, 1158, 1180, 1195, 1212, 1226, 1234, 1257, 1270, 1287, 1309, 1312, 1333, 1354, 1366, 1382, 1401, 1418, 1437, 1442, 1461, 1486, 1496, 1508, 1532, 1541, 1556, 1577, 1594, 1613, 1620, 1645, 1654, 1677, 1686, 1706, 1718, 1729, 1750, 1773, 1777, 1806, 1811, 1828, 1846, 1858, 1885, 1899, 1914, 1928, 1938, 1957, 1980, 1984, 2010, 2030, 2040, 
Lime samples: 
8, 98, 199, 296, 387, 482, 589, 683, 779, 864, 964, 1062, 1158, 1257, 1354, 1442, 1541, 1645, 1729, 1828, 1928, 
Insertion Distribution: 
	LOAD 16786 0 0 0 0 0 23964 137245 
	RFO 0 0 0 0 0 0 985 2561 
	PREF 0 0 0 0 0 0 0 0 
	WRITEBACK 0 0 0 0 0 0 0 2009 
Total Prefetch Downgrades: 0
