
*** ChampSim Multicore Out-of-Order Simulator ***

Warmup Instructions: 10000000
Simulation Instructions: 100000000
Configuration: 1
Number of CPUs: 1
LLC sets: 2048
LLC ways: 16
Off-chip DRAM Channels: 1 Width: 64-bit Data Rate: 1600 MT/s

CPU 0 runs /datasets/cs240c-wi22-a00-public/data/Assignment2-gz/zeusmp_300B.trace.gz
Heartbeat CPU 0 instructions: 1000003 cycles: 508391 heartbeat IPC: 1.967 cumulative IPC: 1.967 (Simulation time: 0 hr 0 min 18 sec) 
select_counter is 334
Heartbeat CPU 0 instructions: 2000003 cycles: 1059161 heartbeat IPC: 1.81564 cumulative IPC: 1.88829 (Simulation time: 0 hr 0 min 36 sec) 
select_counter is 215
Heartbeat CPU 0 instructions: 3000002 cycles: 1602081 heartbeat IPC: 1.84189 cumulative IPC: 1.87257 (Simulation time: 0 hr 0 min 53 sec) 
select_counter is 65
Heartbeat CPU 0 instructions: 4000000 cycles: 2087846 heartbeat IPC: 2.0586 cumulative IPC: 1.91585 (Simulation time: 0 hr 1 min 11 sec) 
select_counter is 1017
Heartbeat CPU 0 instructions: 5000001 cycles: 2571024 heartbeat IPC: 2.06963 cumulative IPC: 1.94475 (Simulation time: 0 hr 1 min 29 sec) 
select_counter is 938
Heartbeat CPU 0 instructions: 6000000 cycles: 3056831 heartbeat IPC: 2.05843 cumulative IPC: 1.96282 (Simulation time: 0 hr 1 min 47 sec) 
select_counter is 874
Heartbeat CPU 0 instructions: 7000001 cycles: 3583711 heartbeat IPC: 1.89797 cumulative IPC: 1.95328 (Simulation time: 0 hr 2 min 4 sec) 
select_counter is 781
Heartbeat CPU 0 instructions: 8000000 cycles: 4135929 heartbeat IPC: 1.81088 cumulative IPC: 1.93427 (Simulation time: 0 hr 2 min 22 sec) 
select_counter is 690
Heartbeat CPU 0 instructions: 9000000 cycles: 4662655 heartbeat IPC: 1.89852 cumulative IPC: 1.93023 (Simulation time: 0 hr 2 min 39 sec) 
select_counter is 610
Heartbeat CPU 0 instructions: 10000002 cycles: 5147804 heartbeat IPC: 2.06123 cumulative IPC: 1.94258 (Simulation time: 0 hr 2 min 56 sec) 
select_counter is 531

Warmup complete CPU 0 instructions: 10000002 cycles: 5147804 (Simulation time: 0 hr 2 min 56 sec) 

Heartbeat CPU 0 instructions: 11000003 cycles: 6014243 heartbeat IPC: 1.15415 cumulative IPC: 1.15415 (Simulation time: 0 hr 3 min 16 sec) 
select_counter is 494
Heartbeat CPU 0 instructions: 12000000 cycles: 6874670 heartbeat IPC: 1.16221 cumulative IPC: 1.15817 (Simulation time: 0 hr 3 min 39 sec) 
select_counter is 446
Heartbeat CPU 0 instructions: 13000000 cycles: 7870386 heartbeat IPC: 1.0043 cumulative IPC: 1.10189 (Simulation time: 0 hr 4 min 0 sec) 
select_counter is 379
Heartbeat CPU 0 instructions: 14000000 cycles: 8894979 heartbeat IPC: 0.975997 cumulative IPC: 1.06747 (Simulation time: 0 hr 4 min 22 sec) 
select_counter is 288
Heartbeat CPU 0 instructions: 15000002 cycles: 9807847 heartbeat IPC: 1.09545 cumulative IPC: 1.07295 (Simulation time: 0 hr 4 min 42 sec) 
select_counter is 188
Heartbeat CPU 0 instructions: 16000000 cycles: 10673619 heartbeat IPC: 1.15504 cumulative IPC: 1.08581 (Simulation time: 0 hr 5 min 6 sec) 
select_counter is 140
Heartbeat CPU 0 instructions: 17000002 cycles: 11548939 heartbeat IPC: 1.14244 cumulative IPC: 1.09356 (Simulation time: 0 hr 5 min 26 sec) 
select_counter is 87
Heartbeat CPU 0 instructions: 18000000 cycles: 12432756 heartbeat IPC: 1.13145 cumulative IPC: 1.09815 (Simulation time: 0 hr 5 min 45 sec) 
select_counter is 39
Heartbeat CPU 0 instructions: 19000003 cycles: 13456806 heartbeat IPC: 0.976518 cumulative IPC: 1.08316 (Simulation time: 0 hr 6 min 5 sec) 
select_counter is 973
Heartbeat CPU 0 instructions: 20000000 cycles: 14479433 heartbeat IPC: 0.977871 cumulative IPC: 1.07162 (Simulation time: 0 hr 6 min 25 sec) 
select_counter is 887
Heartbeat CPU 0 instructions: 21000001 cycles: 15356114 heartbeat IPC: 1.14067 cumulative IPC: 1.07755 (Simulation time: 0 hr 6 min 45 sec) 
select_counter is 822
Heartbeat CPU 0 instructions: 22000000 cycles: 16224566 heartbeat IPC: 1.15147 cumulative IPC: 1.08335 (Simulation time: 0 hr 7 min 4 sec) 
select_counter is 765
Heartbeat CPU 0 instructions: 23000001 cycles: 17092840 heartbeat IPC: 1.15171 cumulative IPC: 1.08832 (Simulation time: 0 hr 7 min 23 sec) 
select_counter is 714
Heartbeat CPU 0 instructions: 24000000 cycles: 18006317 heartbeat IPC: 1.09472 cumulative IPC: 1.08877 (Simulation time: 0 hr 7 min 43 sec) 
select_counter is 684
Heartbeat CPU 0 instructions: 25000000 cycles: 19029100 heartbeat IPC: 0.977724 cumulative IPC: 1.08059 (Simulation time: 0 hr 8 min 3 sec) 
select_counter is 593
Heartbeat CPU 0 instructions: 26000003 cycles: 20027958 heartbeat IPC: 1.00115 cumulative IPC: 1.07526 (Simulation time: 0 hr 8 min 23 sec) 
select_counter is 498
Heartbeat CPU 0 instructions: 27000002 cycles: 20887812 heartbeat IPC: 1.16299 cumulative IPC: 1.08005 (Simulation time: 0 hr 8 min 42 sec) 
select_counter is 429
Heartbeat CPU 0 instructions: 28000000 cycles: 21754038 heartbeat IPC: 1.15443 cumulative IPC: 1.08393 (Simulation time: 0 hr 9 min 1 sec) 
select_counter is 392
Heartbeat CPU 0 instructions: 29000003 cycles: 22622425 heartbeat IPC: 1.15156 cumulative IPC: 1.08729 (Simulation time: 0 hr 9 min 20 sec) 
select_counter is 335
Heartbeat CPU 0 instructions: 30000002 cycles: 23565998 heartbeat IPC: 1.0598 cumulative IPC: 1.08588 (Simulation time: 0 hr 9 min 40 sec) 
select_counter is 289
Heartbeat CPU 0 instructions: 31000001 cycles: 24590836 heartbeat IPC: 0.975763 cumulative IPC: 1.08008 (Simulation time: 0 hr 10 min 1 sec) 
select_counter is 208
Heartbeat CPU 0 instructions: 32000000 cycles: 25556817 heartbeat IPC: 1.03522 cumulative IPC: 1.07796 (Simulation time: 0 hr 10 min 21 sec) 
select_counter is 115
Heartbeat CPU 0 instructions: 33000000 cycles: 26416559 heartbeat IPC: 1.16314 cumulative IPC: 1.0814 (Simulation time: 0 hr 10 min 40 sec) 
select_counter is 56
Heartbeat CPU 0 instructions: 34000000 cycles: 27293390 heartbeat IPC: 1.14047 cumulative IPC: 1.08374 (Simulation time: 0 hr 10 min 59 sec) 
select_counter is 7
Heartbeat CPU 0 instructions: 35000000 cycles: 28168295 heartbeat IPC: 1.14298 cumulative IPC: 1.08599 (Simulation time: 0 hr 11 min 19 sec) 
select_counter is 987
Heartbeat CPU 0 instructions: 36000000 cycles: 29148928 heartbeat IPC: 1.01975 cumulative IPC: 1.08328 (Simulation time: 0 hr 11 min 38 sec) 
select_counter is 894
Heartbeat CPU 0 instructions: 37000003 cycles: 30172273 heartbeat IPC: 0.97719 cumulative IPC: 1.07894 (Simulation time: 0 hr 11 min 58 sec) 
select_counter is 817
Heartbeat CPU 0 instructions: 38000001 cycles: 31106215 heartbeat IPC: 1.07073 cumulative IPC: 1.07865 (Simulation time: 0 hr 12 min 21 sec) 
select_counter is 730
Heartbeat CPU 0 instructions: 39000002 cycles: 31974342 heartbeat IPC: 1.15191 cumulative IPC: 1.08102 (Simulation time: 0 hr 12 min 45 sec) 
select_counter is 683
Heartbeat CPU 0 instructions: 40000000 cycles: 32849349 heartbeat IPC: 1.14285 cumulative IPC: 1.08297 (Simulation time: 0 hr 13 min 6 sec) 
select_counter is 619
Heartbeat CPU 0 instructions: 41000001 cycles: 33723564 heartbeat IPC: 1.14388 cumulative IPC: 1.08484 (Simulation time: 0 hr 13 min 27 sec) 
select_counter is 582
Heartbeat CPU 0 instructions: 42000002 cycles: 34745422 heartbeat IPC: 0.978611 cumulative IPC: 1.08117 (Simulation time: 0 hr 13 min 47 sec) 
select_counter is 504
Heartbeat CPU 0 instructions: 43000003 cycles: 35761840 heartbeat IPC: 0.983848 cumulative IPC: 1.07794 (Simulation time: 0 hr 14 min 7 sec) 
select_counter is 402
Heartbeat CPU 0 instructions: 44000000 cycles: 36654749 heartbeat IPC: 1.11993 cumulative IPC: 1.07913 (Simulation time: 0 hr 14 min 25 sec) 
select_counter is 301
Heartbeat CPU 0 instructions: 45000002 cycles: 37524032 heartbeat IPC: 1.15038 cumulative IPC: 1.08104 (Simulation time: 0 hr 14 min 45 sec) 
select_counter is 240
Heartbeat CPU 0 instructions: 46000002 cycles: 38395228 heartbeat IPC: 1.14785 cumulative IPC: 1.08279 (Simulation time: 0 hr 15 min 4 sec) 
select_counter is 171
Heartbeat CPU 0 instructions: 47000001 cycles: 39291466 heartbeat IPC: 1.11577 cumulative IPC: 1.08366 (Simulation time: 0 hr 15 min 23 sec) 
select_counter is 108
Heartbeat CPU 0 instructions: 48000000 cycles: 40313501 heartbeat IPC: 0.978439 cumulative IPC: 1.0806 (Simulation time: 0 hr 15 min 43 sec) 
select_counter is 0
Heartbeat CPU 0 instructions: 49000003 cycles: 41326673 heartbeat IPC: 0.987002 cumulative IPC: 1.07798 (Simulation time: 0 hr 16 min 2 sec) 
select_counter is 918
Heartbeat CPU 0 instructions: 50000001 cycles: 42188163 heartbeat IPC: 1.16078 cumulative IPC: 1.0799 (Simulation time: 0 hr 16 min 20 sec) 
select_counter is 832
Heartbeat CPU 0 instructions: 51000002 cycles: 43058831 heartbeat IPC: 1.14854 cumulative IPC: 1.08148 (Simulation time: 0 hr 16 min 39 sec) 
select_counter is 714
Heartbeat CPU 0 instructions: 52000000 cycles: 43938783 heartbeat IPC: 1.13642 cumulative IPC: 1.08273 (Simulation time: 0 hr 16 min 58 sec) 
select_counter is 580
Heartbeat CPU 0 instructions: 53000000 cycles: 44881608 heartbeat IPC: 1.06064 cumulative IPC: 1.0822 (Simulation time: 0 hr 17 min 17 sec) 
select_counter is 428
Heartbeat CPU 0 instructions: 54000002 cycles: 45903707 heartbeat IPC: 0.978381 cumulative IPC: 1.0796 (Simulation time: 0 hr 17 min 37 sec) 
select_counter is 307
Heartbeat CPU 0 instructions: 55000001 cycles: 46881030 heartbeat IPC: 1.0232 cumulative IPC: 1.07828 (Simulation time: 0 hr 17 min 56 sec) 
select_counter is 205
Heartbeat CPU 0 instructions: 56000000 cycles: 47745091 heartbeat IPC: 1.15732 cumulative IPC: 1.07988 (Simulation time: 0 hr 18 min 15 sec) 
select_counter is 109
Heartbeat CPU 0 instructions: 57000000 cycles: 48616536 heartbeat IPC: 1.14752 cumulative IPC: 1.08124 (Simulation time: 0 hr 18 min 33 sec) 
select_counter is 1011
Heartbeat CPU 0 instructions: 58000000 cycles: 49488372 heartbeat IPC: 1.147 cumulative IPC: 1.08253 (Simulation time: 0 hr 18 min 52 sec) 
select_counter is 901
Heartbeat CPU 0 instructions: 59000003 cycles: 50452487 heartbeat IPC: 1.03722 cumulative IPC: 1.08157 (Simulation time: 0 hr 19 min 11 sec) 
select_counter is 748
Heartbeat CPU 0 instructions: 60000000 cycles: 51473369 heartbeat IPC: 0.979542 cumulative IPC: 1.07932 (Simulation time: 0 hr 19 min 31 sec) 
select_counter is 648
Heartbeat CPU 0 instructions: 61000000 cycles: 52417976 heartbeat IPC: 1.05864 cumulative IPC: 1.0789 (Simulation time: 0 hr 19 min 50 sec) 
select_counter is 561
Heartbeat CPU 0 instructions: 62000002 cycles: 53288019 heartbeat IPC: 1.14937 cumulative IPC: 1.08018 (Simulation time: 0 hr 20 min 9 sec) 
select_counter is 470
Heartbeat CPU 0 instructions: 63000003 cycles: 54165643 heartbeat IPC: 1.13944 cumulative IPC: 1.08124 (Simulation time: 0 hr 20 min 28 sec) 
select_counter is 352
Heartbeat CPU 0 instructions: 64000000 cycles: 55037595 heartbeat IPC: 1.14685 cumulative IPC: 1.08239 (Simulation time: 0 hr 20 min 47 sec) 
select_counter is 219
Heartbeat CPU 0 instructions: 65000003 cycles: 56043374 heartbeat IPC: 0.994257 cumulative IPC: 1.08064 (Simulation time: 0 hr 21 min 7 sec) 
select_counter is 71
Heartbeat CPU 0 instructions: 66000003 cycles: 57064184 heartbeat IPC: 0.979614 cumulative IPC: 1.07866 (Simulation time: 0 hr 21 min 27 sec) 
select_counter is 1008
Heartbeat CPU 0 instructions: 67000002 cycles: 57971836 heartbeat IPC: 1.10174 cumulative IPC: 1.07905 (Simulation time: 0 hr 21 min 46 sec) 
select_counter is 919
Heartbeat CPU 0 instructions: 68000000 cycles: 58841383 heartbeat IPC: 1.15002 cumulative IPC: 1.0802 (Simulation time: 0 hr 22 min 6 sec) 
select_counter is 806
Heartbeat CPU 0 instructions: 69000000 cycles: 59714735 heartbeat IPC: 1.14501 cumulative IPC: 1.08124 (Simulation time: 0 hr 22 min 25 sec) 
select_counter is 686
Heartbeat CPU 0 instructions: 70000001 cycles: 60608143 heartbeat IPC: 1.11931 cumulative IPC: 1.08185 (Simulation time: 0 hr 22 min 44 sec) 
select_counter is 548
Heartbeat CPU 0 instructions: 71000001 cycles: 61623119 heartbeat IPC: 0.985245 cumulative IPC: 1.08012 (Simulation time: 0 hr 23 min 4 sec) 
select_counter is 429
Heartbeat CPU 0 instructions: 72000000 cycles: 62642184 heartbeat IPC: 0.981291 cumulative IPC: 1.07837 (Simulation time: 0 hr 23 min 25 sec) 
select_counter is 331
Heartbeat CPU 0 instructions: 73000003 cycles: 63511884 heartbeat IPC: 1.14983 cumulative IPC: 1.07943 (Simulation time: 0 hr 23 min 45 sec) 
select_counter is 253
Heartbeat CPU 0 instructions: 74000001 cycles: 64372619 heartbeat IPC: 1.1618 cumulative IPC: 1.08063 (Simulation time: 0 hr 24 min 5 sec) 
select_counter is 163
Heartbeat CPU 0 instructions: 75000003 cycles: 65238027 heartbeat IPC: 1.15553 cumulative IPC: 1.08171 (Simulation time: 0 hr 24 min 25 sec) 
select_counter is 68
Heartbeat CPU 0 instructions: 76000000 cycles: 66157504 heartbeat IPC: 1.08757 cumulative IPC: 1.0818 (Simulation time: 0 hr 24 min 44 sec) 
select_counter is 960
Heartbeat CPU 0 instructions: 77000003 cycles: 67178766 heartbeat IPC: 0.979184 cumulative IPC: 1.08011 (Simulation time: 0 hr 25 min 4 sec) 
select_counter is 835
Heartbeat CPU 0 instructions: 78000003 cycles: 68164625 heartbeat IPC: 1.01434 cumulative IPC: 1.07908 (Simulation time: 0 hr 25 min 24 sec) 
select_counter is 748
Heartbeat CPU 0 instructions: 79000001 cycles: 69032496 heartbeat IPC: 1.15224 cumulative IPC: 1.08007 (Simulation time: 0 hr 25 min 44 sec) 
select_counter is 650
Heartbeat CPU 0 instructions: 80000000 cycles: 69904148 heartbeat IPC: 1.14725 cumulative IPC: 1.08098 (Simulation time: 0 hr 26 min 8 sec) 
select_counter is 520
Heartbeat CPU 0 instructions: 81000000 cycles: 70775131 heartbeat IPC: 1.14813 cumulative IPC: 1.08187 (Simulation time: 0 hr 26 min 28 sec) 
select_counter is 409
Heartbeat CPU 0 instructions: 82000002 cycles: 71732829 heartbeat IPC: 1.04417 cumulative IPC: 1.08132 (Simulation time: 0 hr 26 min 46 sec) 
select_counter is 248
Heartbeat CPU 0 instructions: 83000001 cycles: 72752802 heartbeat IPC: 0.980417 cumulative IPC: 1.0798 (Simulation time: 0 hr 27 min 6 sec) 
select_counter is 156
Heartbeat CPU 0 instructions: 84000000 cycles: 73703847 heartbeat IPC: 1.05147 cumulative IPC: 1.07941 (Simulation time: 0 hr 27 min 25 sec) 
select_counter is 71
Heartbeat CPU 0 instructions: 85000001 cycles: 74566926 heartbeat IPC: 1.15864 cumulative IPC: 1.08039 (Simulation time: 0 hr 27 min 44 sec) 
select_counter is 997
Heartbeat CPU 0 instructions: 86000002 cycles: 75438813 heartbeat IPC: 1.14694 cumulative IPC: 1.08122 (Simulation time: 0 hr 28 min 3 sec) 
select_counter is 840
Heartbeat CPU 0 instructions: 87000000 cycles: 76312822 heartbeat IPC: 1.14415 cumulative IPC: 1.08199 (Simulation time: 0 hr 28 min 23 sec) 
select_counter is 724
Heartbeat CPU 0 instructions: 88000000 cycles: 77305809 heartbeat IPC: 1.00706 cumulative IPC: 1.08096 (Simulation time: 0 hr 28 min 42 sec) 
select_counter is 553
Heartbeat CPU 0 instructions: 89000000 cycles: 78323171 heartbeat IPC: 0.982934 cumulative IPC: 1.0796 (Simulation time: 0 hr 29 min 2 sec) 
select_counter is 470
Heartbeat CPU 0 instructions: 90000002 cycles: 79252910 heartbeat IPC: 1.07557 cumulative IPC: 1.07955 (Simulation time: 0 hr 29 min 21 sec) 
select_counter is 365
Heartbeat CPU 0 instructions: 91000002 cycles: 80138703 heartbeat IPC: 1.12893 cumulative IPC: 1.08013 (Simulation time: 0 hr 29 min 40 sec) 
select_counter is 256
Heartbeat CPU 0 instructions: 92000000 cycles: 81027850 heartbeat IPC: 1.12467 cumulative IPC: 1.08065 (Simulation time: 0 hr 29 min 58 sec) 
select_counter is 124
Heartbeat CPU 0 instructions: 93000001 cycles: 81910303 heartbeat IPC: 1.13321 cumulative IPC: 1.08126 (Simulation time: 0 hr 30 min 17 sec) 
select_counter is 1010
Heartbeat CPU 0 instructions: 94000000 cycles: 82933407 heartbeat IPC: 0.977417 cumulative IPC: 1.07989 (Simulation time: 0 hr 30 min 36 sec) 
select_counter is 840
Heartbeat CPU 0 instructions: 95000003 cycles: 83949354 heartbeat IPC: 0.984306 cumulative IPC: 1.07866 (Simulation time: 0 hr 30 min 56 sec) 
select_counter is 752
Heartbeat CPU 0 instructions: 96000000 cycles: 84853552 heartbeat IPC: 1.10595 cumulative IPC: 1.07897 (Simulation time: 0 hr 31 min 15 sec) 
select_counter is 636
Heartbeat CPU 0 instructions: 97000001 cycles: 85747161 heartbeat IPC: 1.11906 cumulative IPC: 1.07941 (Simulation time: 0 hr 31 min 34 sec) 
select_counter is 468
Heartbeat CPU 0 instructions: 98000000 cycles: 86639401 heartbeat IPC: 1.12077 cumulative IPC: 1.07987 (Simulation time: 0 hr 31 min 53 sec) 
select_counter is 294
Heartbeat CPU 0 instructions: 99000001 cycles: 87560311 heartbeat IPC: 1.08588 cumulative IPC: 1.07993 (Simulation time: 0 hr 32 min 12 sec) 
select_counter is 129
Heartbeat CPU 0 instructions: 100000000 cycles: 88581305 heartbeat IPC: 0.979437 cumulative IPC: 1.0787 (Simulation time: 0 hr 32 min 32 sec) 
select_counter is 999
Heartbeat CPU 0 instructions: 101000001 cycles: 89586548 heartbeat IPC: 0.994785 cumulative IPC: 1.0777 (Simulation time: 0 hr 32 min 50 sec) 
select_counter is 940
Heartbeat CPU 0 instructions: 102000003 cycles: 90449500 heartbeat IPC: 1.15882 cumulative IPC: 1.07852 (Simulation time: 0 hr 33 min 10 sec) 
select_counter is 854
Heartbeat CPU 0 instructions: 103000003 cycles: 91319839 heartbeat IPC: 1.14898 cumulative IPC: 1.07924 (Simulation time: 0 hr 33 min 28 sec) 
select_counter is 751
Heartbeat CPU 0 instructions: 104000000 cycles: 92190353 heartbeat IPC: 1.14874 cumulative IPC: 1.07993 (Simulation time: 0 hr 33 min 46 sec) 
select_counter is 628
Heartbeat CPU 0 instructions: 105000001 cycles: 93139132 heartbeat IPC: 1.05399 cumulative IPC: 1.07965 (Simulation time: 0 hr 34 min 4 sec) 
select_counter is 467
Heartbeat CPU 0 instructions: 106000002 cycles: 94152722 heartbeat IPC: 0.986593 cumulative IPC: 1.07859 (Simulation time: 0 hr 34 min 22 sec) 
select_counter is 343
Heartbeat CPU 0 instructions: 107000003 cycles: 95123561 heartbeat IPC: 1.03004 cumulative IPC: 1.07807 (Simulation time: 0 hr 34 min 40 sec) 
select_counter is 272
Heartbeat CPU 0 instructions: 108000000 cycles: 95988766 heartbeat IPC: 1.15579 cumulative IPC: 1.07881 (Simulation time: 0 hr 34 min 58 sec) 
select_counter is 183
Heartbeat CPU 0 instructions: 109000001 cycles: 96862453 heartbeat IPC: 1.14458 cumulative IPC: 1.07943 (Simulation time: 0 hr 35 min 16 sec) 
select_counter is 77
Heartbeat CPU 0 instructions: 110000000 cycles: 97732080 heartbeat IPC: 1.14992 cumulative IPC: 1.0801 (Simulation time: 0 hr 35 min 33 sec) 
select_counter is 983
Finished CPU 0 instructions: 100000002 cycles: 92584277 cummulative IPC: 1.0801 (Simulation time: 0 hr 35 min 33 sec) 

ChampSim completed all CPUs

Region of Interest Statistics

CPU 0 cummulative IPC: 1.0801 instructions: 100000002 cycles: 92584277
LLC TOTAL     ACCESS:     613105  HIT:     288607  MISS:     324498
LLC LOAD      ACCESS:     304677  HIT:     110659  MISS:     194018
LLC RFO       ACCESS:     151946  HIT:      75221  MISS:      76725
LLC PREFETCH  ACCESS:          0  HIT:          0  MISS:          0
LLC WRITEBACK ACCESS:     156482  HIT:     102727  MISS:      53755
Ship samples: 
3, 33, 69, 110, 128, 168, 193, 230, 261, 292, 327, 358, 384, 426, 457, 491, 515, 547, 576, 616, 651, 681, 704, 746, 771, 800, 846, 867, 908, 942, 964, 998, 1027, 1062, 1100, 1131, 1160, 1190, 1228, 1260, 1291, 1319, 1356, 1385, 1410, 1450, 1476, 1518, 1544, 1569, 1614, 1639, 1664, 1704, 1731, 1767, 1798, 1836, 1864, 1898, 1930, 1964, 1984, 2019, 
Lime duel samples: 
6, 19, 37, 53, 68, 93, 108, 113, 141, 149, 163, 179, 198, 216, 229, 250, 257, 279, 294, 313, 329, 341, 365, 378, 391, 407, 424, 444, 460, 467, 485, 501, 514, 537, 550, 570, 585, 601, 618, 635, 643, 661, 674, 693, 707, 733, 748, 765, 782, 796, 805, 819, 833, 856, 874, 885, 896, 920, 930, 948, 973, 983, 1001, 1022, 1025, 1043, 1066, 1076, 1101, 1118, 1127, 1143, 1159, 1171, 1188, 1212, 1229, 1235, 1252, 1269, 1280, 1306, 1312, 1339, 1357, 1372, 1387, 1402, 1420, 1425, 1446, 1456, 1486, 1488, 1513, 1530, 1545, 1564, 1580, 1590, 1605, 1628, 1641, 1662, 1666, 1681, 1707, 1723, 1740, 1756, 1763, 1786, 1799, 1819, 1828, 1846, 1857, 1877, 1902, 1907, 1931, 1939, 1959, 1977, 1985, 2013, 2026, 2039, 
Lime samples: 
6, 108, 198, 294, 391, 485, 585, 674, 782, 874, 973, 1066, 1159, 1252, 1357, 1446, 1545, 1641, 1740, 1828, 1931, 
Insertion Distribution: 
	LOAD 16665 0 0 0 0 0 16137 75845 
	RFO 98 0 0 0 0 0 5898 39339 
	PREF 0 0 0 0 0 0 0 0 
	WRITEBACK 0 0 0 0 0 0 0 30482 
Total Prefetch Downgrades: 0
