
*** ChampSim Multicore Out-of-Order Simulator ***

Warmup Instructions: 10000000
Simulation Instructions: 100000000
Configuration: 1
Number of CPUs: 1
LLC sets: 2048
LLC ways: 16
Off-chip DRAM Channels: 1 Width: 64-bit Data Rate: 1600 MT/s

CPU 0 runs /datasets/cs240c-wi22-a00-public/data/Assignment2-gz/astar_313B.trace.gz
Heartbeat CPU 0 instructions: 1000001 cycles: 678650 heartbeat IPC: 1.47352 cumulative IPC: 1.47352 (Simulation time: 0 hr 0 min 28 sec) 
select_counter is 798
Heartbeat CPU 0 instructions: 2000003 cycles: 1269525 heartbeat IPC: 1.69241 cumulative IPC: 1.57539 (Simulation time: 0 hr 0 min 56 sec) 
select_counter is 619
Heartbeat CPU 0 instructions: 3000003 cycles: 1946945 heartbeat IPC: 1.47619 cumulative IPC: 1.54088 (Simulation time: 0 hr 1 min 24 sec) 
select_counter is 819
Heartbeat CPU 0 instructions: 4000000 cycles: 2624728 heartbeat IPC: 1.47539 cumulative IPC: 1.52397 (Simulation time: 0 hr 1 min 52 sec) 
select_counter is 22
Heartbeat CPU 0 instructions: 5000002 cycles: 3302428 heartbeat IPC: 1.47558 cumulative IPC: 1.51404 (Simulation time: 0 hr 2 min 21 sec) 
select_counter is 463
Heartbeat CPU 0 instructions: 6000001 cycles: 3892575 heartbeat IPC: 1.69449 cumulative IPC: 1.5414 (Simulation time: 0 hr 2 min 47 sec) 
select_counter is 360
Heartbeat CPU 0 instructions: 7000001 cycles: 4464899 heartbeat IPC: 1.74726 cumulative IPC: 1.56778 (Simulation time: 0 hr 3 min 13 sec) 
select_counter is 805
Heartbeat CPU 0 instructions: 8000000 cycles: 5020175 heartbeat IPC: 1.8009 cumulative IPC: 1.59357 (Simulation time: 0 hr 3 min 40 sec) 
select_counter is 746
Heartbeat CPU 0 instructions: 9000001 cycles: 5584669 heartbeat IPC: 1.7715 cumulative IPC: 1.61155 (Simulation time: 0 hr 4 min 9 sec) 
select_counter is 134
Heartbeat CPU 0 instructions: 10000002 cycles: 6261442 heartbeat IPC: 1.4776 cumulative IPC: 1.59708 (Simulation time: 0 hr 4 min 37 sec) 
select_counter is 740

Warmup complete CPU 0 instructions: 10000002 cycles: 6261442 (Simulation time: 0 hr 4 min 37 sec) 

Heartbeat CPU 0 instructions: 11000000 cycles: 13416721 heartbeat IPC: 0.139757 cumulative IPC: 0.139757 (Simulation time: 0 hr 5 min 7 sec) 
select_counter is 190
Heartbeat CPU 0 instructions: 12000000 cycles: 20899736 heartbeat IPC: 0.133636 cumulative IPC: 0.136628 (Simulation time: 0 hr 5 min 39 sec) 
select_counter is 352
Heartbeat CPU 0 instructions: 13000003 cycles: 30357807 heartbeat IPC: 0.10573 cumulative IPC: 0.1245 (Simulation time: 0 hr 6 min 19 sec) 
select_counter is 790
Heartbeat CPU 0 instructions: 14000002 cycles: 37302862 heartbeat IPC: 0.143987 cumulative IPC: 0.12886 (Simulation time: 0 hr 6 min 49 sec) 
select_counter is 174
Heartbeat CPU 0 instructions: 15000000 cycles: 44410289 heartbeat IPC: 0.140698 cumulative IPC: 0.131066 (Simulation time: 0 hr 7 min 21 sec) 
select_counter is 479
Heartbeat CPU 0 instructions: 16000000 cycles: 51443497 heartbeat IPC: 0.142183 cumulative IPC: 0.132796 (Simulation time: 0 hr 7 min 53 sec) 
select_counter is 694
Heartbeat CPU 0 instructions: 17000001 cycles: 58440101 heartbeat IPC: 0.142927 cumulative IPC: 0.134154 (Simulation time: 0 hr 8 min 21 sec) 
select_counter is 928
Heartbeat CPU 0 instructions: 18000000 cycles: 67976079 heartbeat IPC: 0.104866 cumulative IPC: 0.129629 (Simulation time: 0 hr 8 min 57 sec) 
select_counter is 451
Heartbeat CPU 0 instructions: 19000000 cycles: 74753367 heartbeat IPC: 0.147552 cumulative IPC: 0.131402 (Simulation time: 0 hr 9 min 29 sec) 
select_counter is 114
Heartbeat CPU 0 instructions: 20000000 cycles: 81707283 heartbeat IPC: 0.143804 cumulative IPC: 0.132545 (Simulation time: 0 hr 10 min 4 sec) 
select_counter is 573
Heartbeat CPU 0 instructions: 21000003 cycles: 90873525 heartbeat IPC: 0.109096 cumulative IPC: 0.130005 (Simulation time: 0 hr 10 min 34 sec) 
select_counter is 419
Heartbeat CPU 0 instructions: 22000002 cycles: 98670579 heartbeat IPC: 0.128253 cumulative IPC: 0.129857 (Simulation time: 0 hr 11 min 8 sec) 
select_counter is 47
Heartbeat CPU 0 instructions: 23000002 cycles: 105338822 heartbeat IPC: 0.149965 cumulative IPC: 0.131211 (Simulation time: 0 hr 11 min 35 sec) 
select_counter is 404
Heartbeat CPU 0 instructions: 24000000 cycles: 112773980 heartbeat IPC: 0.134496 cumulative IPC: 0.13144 (Simulation time: 0 hr 12 min 4 sec) 
select_counter is 216
Heartbeat CPU 0 instructions: 25000001 cycles: 121621374 heartbeat IPC: 0.113028 cumulative IPC: 0.130028 (Simulation time: 0 hr 12 min 41 sec) 
select_counter is 280
Heartbeat CPU 0 instructions: 26000002 cycles: 128641861 heartbeat IPC: 0.14244 cumulative IPC: 0.13074 (Simulation time: 0 hr 13 min 13 sec) 
select_counter is 666
Heartbeat CPU 0 instructions: 27000003 cycles: 138784551 heartbeat IPC: 0.0985933 cumulative IPC: 0.12828 (Simulation time: 0 hr 13 min 50 sec) 
select_counter is 321
Heartbeat CPU 0 instructions: 28000000 cycles: 145561338 heartbeat IPC: 0.147562 cumulative IPC: 0.129218 (Simulation time: 0 hr 14 min 20 sec) 
select_counter is 838
Heartbeat CPU 0 instructions: 29000001 cycles: 154977773 heartbeat IPC: 0.106197 cumulative IPC: 0.12776 (Simulation time: 0 hr 14 min 56 sec) 
select_counter is 424
Heartbeat CPU 0 instructions: 30000001 cycles: 161566810 heartbeat IPC: 0.151767 cumulative IPC: 0.128779 (Simulation time: 0 hr 15 min 28 sec) 
select_counter is 737
Heartbeat CPU 0 instructions: 31000002 cycles: 168246948 heartbeat IPC: 0.149698 cumulative IPC: 0.129641 (Simulation time: 0 hr 16 min 0 sec) 
select_counter is 70
Heartbeat CPU 0 instructions: 32000000 cycles: 174726195 heartbeat IPC: 0.154339 cumulative IPC: 0.130591 (Simulation time: 0 hr 16 min 30 sec) 
select_counter is 343
Heartbeat CPU 0 instructions: 33000000 cycles: 181061805 heartbeat IPC: 0.157838 cumulative IPC: 0.131579 (Simulation time: 0 hr 17 min 0 sec) 
select_counter is 821
Heartbeat CPU 0 instructions: 34000000 cycles: 190800458 heartbeat IPC: 0.102684 cumulative IPC: 0.130054 (Simulation time: 0 hr 17 min 41 sec) 
select_counter is 280
Heartbeat CPU 0 instructions: 35000000 cycles: 197909657 heartbeat IPC: 0.140663 cumulative IPC: 0.130447 (Simulation time: 0 hr 18 min 11 sec) 
select_counter is 328
Heartbeat CPU 0 instructions: 36000000 cycles: 204845407 heartbeat IPC: 0.144181 cumulative IPC: 0.130927 (Simulation time: 0 hr 18 min 41 sec) 
select_counter is 640
Heartbeat CPU 0 instructions: 37000002 cycles: 214416911 heartbeat IPC: 0.104477 cumulative IPC: 0.129711 (Simulation time: 0 hr 19 min 17 sec) 
select_counter is 209
Heartbeat CPU 0 instructions: 38000000 cycles: 221034483 heartbeat IPC: 0.151113 cumulative IPC: 0.13037 (Simulation time: 0 hr 19 min 46 sec) 
select_counter is 399
Heartbeat CPU 0 instructions: 39000001 cycles: 230699386 heartbeat IPC: 0.103467 cumulative IPC: 0.129212 (Simulation time: 0 hr 20 min 23 sec) 
select_counter is 57
Heartbeat CPU 0 instructions: 40000000 cycles: 240497424 heartbeat IPC: 0.102061 cumulative IPC: 0.128076 (Simulation time: 0 hr 21 min 0 sec) 
select_counter is 408
Heartbeat CPU 0 instructions: 41000001 cycles: 247500741 heartbeat IPC: 0.14279 cumulative IPC: 0.128503 (Simulation time: 0 hr 21 min 32 sec) 
select_counter is 673
Heartbeat CPU 0 instructions: 42000003 cycles: 254982448 heartbeat IPC: 0.13366 cumulative IPC: 0.128658 (Simulation time: 0 hr 22 min 6 sec) 
select_counter is 947
Heartbeat CPU 0 instructions: 43000000 cycles: 264950789 heartbeat IPC: 0.100317 cumulative IPC: 0.127566 (Simulation time: 0 hr 22 min 44 sec) 
select_counter is 1006
Heartbeat CPU 0 instructions: 44000000 cycles: 271955500 heartbeat IPC: 0.142761 cumulative IPC: 0.127967 (Simulation time: 0 hr 23 min 15 sec) 
select_counter is 982
Heartbeat CPU 0 instructions: 45000000 cycles: 279055151 heartbeat IPC: 0.140852 cumulative IPC: 0.128302 (Simulation time: 0 hr 23 min 43 sec) 
select_counter is 287
Heartbeat CPU 0 instructions: 46000002 cycles: 286149655 heartbeat IPC: 0.140954 cumulative IPC: 0.128623 (Simulation time: 0 hr 24 min 13 sec) 
select_counter is 597
Heartbeat CPU 0 instructions: 47000000 cycles: 293372768 heartbeat IPC: 0.138444 cumulative IPC: 0.12887 (Simulation time: 0 hr 24 min 44 sec) 
select_counter is 875
Heartbeat CPU 0 instructions: 48000000 cycles: 302811725 heartbeat IPC: 0.105944 cumulative IPC: 0.12814 (Simulation time: 0 hr 25 min 24 sec) 
select_counter is 528
Heartbeat CPU 0 instructions: 49000000 cycles: 309387709 heartbeat IPC: 0.152068 cumulative IPC: 0.128659 (Simulation time: 0 hr 25 min 56 sec) 
select_counter is 823
Heartbeat CPU 0 instructions: 50000000 cycles: 316184976 heartbeat IPC: 0.147118 cumulative IPC: 0.129064 (Simulation time: 0 hr 26 min 27 sec) 
select_counter is 80
Heartbeat CPU 0 instructions: 51000000 cycles: 323570859 heartbeat IPC: 0.135393 cumulative IPC: 0.129211 (Simulation time: 0 hr 27 min 3 sec) 
select_counter is 781
Heartbeat CPU 0 instructions: 52000000 cycles: 332808483 heartbeat IPC: 0.108253 cumulative IPC: 0.128619 (Simulation time: 0 hr 27 min 41 sec) 
select_counter is 47
Heartbeat CPU 0 instructions: 53000000 cycles: 339936505 heartbeat IPC: 0.140291 cumulative IPC: 0.128868 (Simulation time: 0 hr 28 min 20 sec) 
select_counter is 462
Heartbeat CPU 0 instructions: 54000001 cycles: 347787261 heartbeat IPC: 0.127376 cumulative IPC: 0.128834 (Simulation time: 0 hr 28 min 50 sec) 
select_counter is 916
Heartbeat CPU 0 instructions: 55000001 cycles: 355985230 heartbeat IPC: 0.121981 cumulative IPC: 0.128673 (Simulation time: 0 hr 29 min 20 sec) 
select_counter is 105
Heartbeat CPU 0 instructions: 56000000 cycles: 366215431 heartbeat IPC: 0.0977497 cumulative IPC: 0.127794 (Simulation time: 0 hr 29 min 56 sec) 
select_counter is 761
Heartbeat CPU 0 instructions: 57000000 cycles: 373121945 heartbeat IPC: 0.144791 cumulative IPC: 0.128114 (Simulation time: 0 hr 30 min 28 sec) 
select_counter is 942
Heartbeat CPU 0 instructions: 58000001 cycles: 380182877 heartbeat IPC: 0.141625 cumulative IPC: 0.128369 (Simulation time: 0 hr 30 min 57 sec) 
select_counter is 198
Heartbeat CPU 0 instructions: 59000002 cycles: 388858115 heartbeat IPC: 0.115271 cumulative IPC: 0.128072 (Simulation time: 0 hr 31 min 26 sec) 
select_counter is 343
Heartbeat CPU 0 instructions: 60000000 cycles: 397092441 heartbeat IPC: 0.121443 cumulative IPC: 0.127933 (Simulation time: 0 hr 32 min 1 sec) 
select_counter is 1000
Heartbeat CPU 0 instructions: 61000001 cycles: 404242115 heartbeat IPC: 0.139867 cumulative IPC: 0.128147 (Simulation time: 0 hr 32 min 30 sec) 
select_counter is 240
Heartbeat CPU 0 instructions: 62000001 cycles: 411401692 heartbeat IPC: 0.139673 cumulative IPC: 0.128351 (Simulation time: 0 hr 33 min 0 sec) 
select_counter is 603
Heartbeat CPU 0 instructions: 63000000 cycles: 418572073 heartbeat IPC: 0.139462 cumulative IPC: 0.128544 (Simulation time: 0 hr 33 min 30 sec) 
select_counter is 940
Heartbeat CPU 0 instructions: 64000000 cycles: 427826070 heartbeat IPC: 0.108061 cumulative IPC: 0.128094 (Simulation time: 0 hr 34 min 1 sec) 
select_counter is 584
Heartbeat CPU 0 instructions: 65000000 cycles: 435370193 heartbeat IPC: 0.132554 cumulative IPC: 0.128173 (Simulation time: 0 hr 34 min 31 sec) 
select_counter is 872
Heartbeat CPU 0 instructions: 66000001 cycles: 442369215 heartbeat IPC: 0.142877 cumulative IPC: 0.128409 (Simulation time: 0 hr 34 min 58 sec) 
select_counter is 187
Heartbeat CPU 0 instructions: 67000000 cycles: 449584040 heartbeat IPC: 0.138603 cumulative IPC: 0.128575 (Simulation time: 0 hr 35 min 24 sec) 
select_counter is 502
Heartbeat CPU 0 instructions: 68000000 cycles: 456751865 heartbeat IPC: 0.139512 cumulative IPC: 0.128749 (Simulation time: 0 hr 35 min 50 sec) 
select_counter is 677
Heartbeat CPU 0 instructions: 69000000 cycles: 469488573 heartbeat IPC: 0.0785132 cumulative IPC: 0.127367 (Simulation time: 0 hr 36 min 27 sec) 
select_counter is 110
Heartbeat CPU 0 instructions: 70000000 cycles: 476525345 heartbeat IPC: 0.142111 cumulative IPC: 0.127588 (Simulation time: 0 hr 36 min 49 sec) 
select_counter is 474
Heartbeat CPU 0 instructions: 71000002 cycles: 483647893 heartbeat IPC: 0.140399 cumulative IPC: 0.127779 (Simulation time: 0 hr 37 min 10 sec) 
select_counter is 824
Heartbeat CPU 0 instructions: 72000000 cycles: 490904681 heartbeat IPC: 0.137802 cumulative IPC: 0.127929 (Simulation time: 0 hr 37 min 31 sec) 
select_counter is 63
Heartbeat CPU 0 instructions: 73000003 cycles: 498177204 heartbeat IPC: 0.137504 cumulative IPC: 0.128071 (Simulation time: 0 hr 37 min 52 sec) 
select_counter is 291
Heartbeat CPU 0 instructions: 74000003 cycles: 507198155 heartbeat IPC: 0.110853 cumulative IPC: 0.127761 (Simulation time: 0 hr 38 min 15 sec) 
select_counter is 654
Heartbeat CPU 0 instructions: 75000000 cycles: 514760042 heartbeat IPC: 0.132242 cumulative IPC: 0.127827 (Simulation time: 0 hr 38 min 36 sec) 
select_counter is 998
Heartbeat CPU 0 instructions: 76000000 cycles: 521309866 heartbeat IPC: 0.152676 cumulative IPC: 0.128143 (Simulation time: 0 hr 38 min 55 sec) 
select_counter is 358
Heartbeat CPU 0 instructions: 77000000 cycles: 528119637 heartbeat IPC: 0.146848 cumulative IPC: 0.128387 (Simulation time: 0 hr 39 min 15 sec) 
select_counter is 556
Heartbeat CPU 0 instructions: 78000001 cycles: 534818517 heartbeat IPC: 0.149279 cumulative IPC: 0.128652 (Simulation time: 0 hr 39 min 34 sec) 
select_counter is 849
Heartbeat CPU 0 instructions: 79000000 cycles: 544200266 heartbeat IPC: 0.10659 cumulative IPC: 0.128267 (Simulation time: 0 hr 39 min 55 sec) 
select_counter is 383
Heartbeat CPU 0 instructions: 80000000 cycles: 551182667 heartbeat IPC: 0.143217 cumulative IPC: 0.128459 (Simulation time: 0 hr 40 min 13 sec) 
select_counter is 579
Heartbeat CPU 0 instructions: 81000003 cycles: 559384443 heartbeat IPC: 0.121925 cumulative IPC: 0.128362 (Simulation time: 0 hr 40 min 30 sec) 
select_counter is 145
Heartbeat CPU 0 instructions: 82000001 cycles: 567947999 heartbeat IPC: 0.116774 cumulative IPC: 0.128185 (Simulation time: 0 hr 40 min 49 sec) 
select_counter is 357
Heartbeat CPU 0 instructions: 83000002 cycles: 574998409 heartbeat IPC: 0.141836 cumulative IPC: 0.128355 (Simulation time: 0 hr 41 min 5 sec) 
select_counter is 437
Heartbeat CPU 0 instructions: 84000000 cycles: 582172167 heartbeat IPC: 0.139397 cumulative IPC: 0.128492 (Simulation time: 0 hr 41 min 21 sec) 
select_counter is 711
Heartbeat CPU 0 instructions: 85000002 cycles: 589714887 heartbeat IPC: 0.132578 cumulative IPC: 0.128545 (Simulation time: 0 hr 41 min 37 sec) 
select_counter is 745
Heartbeat CPU 0 instructions: 86000001 cycles: 598901443 heartbeat IPC: 0.108855 cumulative IPC: 0.12824 (Simulation time: 0 hr 41 min 57 sec) 
select_counter is 525
Heartbeat CPU 0 instructions: 87000000 cycles: 605506039 heartbeat IPC: 0.15141 cumulative IPC: 0.128495 (Simulation time: 0 hr 42 min 12 sec) 
select_counter is 784
Heartbeat CPU 0 instructions: 88000000 cycles: 612309398 heartbeat IPC: 0.146986 cumulative IPC: 0.128703 (Simulation time: 0 hr 42 min 29 sec) 
select_counter is 18
Heartbeat CPU 0 instructions: 89000002 cycles: 619195570 heartbeat IPC: 0.145219 cumulative IPC: 0.128888 (Simulation time: 0 hr 42 min 44 sec) 
select_counter is 306
Heartbeat CPU 0 instructions: 90000002 cycles: 625946382 heartbeat IPC: 0.14813 cumulative IPC: 0.129098 (Simulation time: 0 hr 42 min 57 sec) 
select_counter is 645
Heartbeat CPU 0 instructions: 91000001 cycles: 635507092 heartbeat IPC: 0.104595 cumulative IPC: 0.128726 (Simulation time: 0 hr 43 min 13 sec) 
select_counter is 154
Heartbeat CPU 0 instructions: 92000000 cycles: 642548034 heartbeat IPC: 0.142026 cumulative IPC: 0.128873 (Simulation time: 0 hr 43 min 24 sec) 
select_counter is 376
Heartbeat CPU 0 instructions: 93000003 cycles: 649975722 heartbeat IPC: 0.134632 cumulative IPC: 0.128939 (Simulation time: 0 hr 43 min 35 sec) 
select_counter is 576
Heartbeat CPU 0 instructions: 94000000 cycles: 657628400 heartbeat IPC: 0.130673 cumulative IPC: 0.12896 (Simulation time: 0 hr 43 min 45 sec) 
select_counter is 898
Heartbeat CPU 0 instructions: 95000000 cycles: 664398450 heartbeat IPC: 0.147709 cumulative IPC: 0.129152 (Simulation time: 0 hr 43 min 54 sec) 
select_counter is 162
Heartbeat CPU 0 instructions: 96000000 cycles: 674144337 heartbeat IPC: 0.102607 cumulative IPC: 0.128765 (Simulation time: 0 hr 44 min 5 sec) 
select_counter is 670
Heartbeat CPU 0 instructions: 97000000 cycles: 681230678 heartbeat IPC: 0.141117 cumulative IPC: 0.128895 (Simulation time: 0 hr 44 min 14 sec) 
select_counter is 1011
Heartbeat CPU 0 instructions: 98000003 cycles: 688963533 heartbeat IPC: 0.129319 cumulative IPC: 0.1289 (Simulation time: 0 hr 44 min 23 sec) 
select_counter is 184
Heartbeat CPU 0 instructions: 99000001 cycles: 696830493 heartbeat IPC: 0.127114 cumulative IPC: 0.128879 (Simulation time: 0 hr 44 min 30 sec) 
select_counter is 657
Heartbeat CPU 0 instructions: 100000000 cycles: 704394897 heartbeat IPC: 0.132198 cumulative IPC: 0.128915 (Simulation time: 0 hr 44 min 37 sec) 
select_counter is 893
Heartbeat CPU 0 instructions: 101000000 cycles: 714101318 heartbeat IPC: 0.103025 cumulative IPC: 0.12856 (Simulation time: 0 hr 44 min 45 sec) 
select_counter is 391
Heartbeat CPU 0 instructions: 102000001 cycles: 720649518 heartbeat IPC: 0.152714 cumulative IPC: 0.128782 (Simulation time: 0 hr 44 min 51 sec) 
select_counter is 593
Heartbeat CPU 0 instructions: 103000001 cycles: 727420474 heartbeat IPC: 0.14769 cumulative IPC: 0.128959 (Simulation time: 0 hr 44 min 57 sec) 
select_counter is 870
Heartbeat CPU 0 instructions: 104000000 cycles: 734187134 heartbeat IPC: 0.147783 cumulative IPC: 0.129134 (Simulation time: 0 hr 45 min 2 sec) 
select_counter is 218
Heartbeat CPU 0 instructions: 105000000 cycles: 740583445 heartbeat IPC: 0.15634 cumulative IPC: 0.129371 (Simulation time: 0 hr 45 min 8 sec) 
select_counter is 589
Heartbeat CPU 0 instructions: 106000000 cycles: 750201153 heartbeat IPC: 0.103975 cumulative IPC: 0.129043 (Simulation time: 0 hr 45 min 14 sec) 
select_counter is 12
Heartbeat CPU 0 instructions: 107000002 cycles: 757278649 heartbeat IPC: 0.141293 cumulative IPC: 0.129158 (Simulation time: 0 hr 45 min 18 sec) 
select_counter is 385
Heartbeat CPU 0 instructions: 108000000 cycles: 766911215 heartbeat IPC: 0.103814 cumulative IPC: 0.128837 (Simulation time: 0 hr 45 min 23 sec) 
select_counter is 762
Heartbeat CPU 0 instructions: 109000003 cycles: 773905531 heartbeat IPC: 0.142974 cumulative IPC: 0.128966 (Simulation time: 0 hr 45 min 28 sec) 
select_counter is 212
Heartbeat CPU 0 instructions: 110000003 cycles: 780770797 heartbeat IPC: 0.145661 cumulative IPC: 0.129114 (Simulation time: 0 hr 45 min 32 sec) 
select_counter is 418
Finished CPU 0 instructions: 100000001 cycles: 774509355 cummulative IPC: 0.129114 (Simulation time: 0 hr 45 min 32 sec) 

ChampSim completed all CPUs

Region of Interest Statistics

CPU 0 cummulative IPC: 0.129114 instructions: 100000001 cycles: 774509355
LLC TOTAL     ACCESS:    6966715  HIT:    2602896  MISS:    4363819
LLC LOAD      ACCESS:    2413972  HIT:     518845  MISS:    1895127
LLC RFO       ACCESS:    1812775  HIT:     704481  MISS:    1108294
LLC PREFETCH  ACCESS:          0  HIT:          0  MISS:          0
LLC WRITEBACK ACCESS:    2739968  HIT:    1379570  MISS:    1360398
Ship samples: 
1, 36, 72, 97, 141, 169, 193, 235, 258, 288, 323, 355, 387, 425, 449, 493, 524, 544, 580, 608, 645, 674, 707, 739, 771, 813, 843, 869, 896, 928, 967, 994, 1035, 1070, 1096, 1123, 1159, 1184, 1217, 1260, 1286, 1312, 1350, 1389, 1413, 1440, 1475, 1504, 1543, 1579, 1613, 1632, 1669, 1696, 1736, 1764, 1801, 1837, 1862, 1896, 1925, 1953, 1988, 2018, 
Lime duel samples: 
10, 28, 39, 62, 65, 89, 108, 120, 133, 148, 171, 189, 206, 214, 229, 253, 268, 272, 295, 313, 328, 339, 364, 381, 393, 405, 417, 442, 448, 470, 486, 496, 526, 536, 557, 574, 586, 597, 610, 624, 650, 656, 686, 700, 714, 730, 737, 755, 768, 790, 803, 829, 834, 853, 867, 888, 898, 913, 941, 957, 971, 985, 1002, 1014, 1024, 1048, 1065, 1079, 1092, 1105, 1133, 1141, 1164, 1172, 1196, 1204, 1222, 1244, 1256, 1271, 1283, 1296, 1313, 1342, 1356, 1369, 1386, 1401, 1422, 1438, 1444, 1459, 1472, 1499, 1517, 1526, 1537, 1560, 1573, 1598, 1614, 1619, 1636, 1661, 1668, 1684, 1701, 1720, 1741, 1755, 1760, 1779, 1797, 1814, 1829, 1851, 1859, 1875, 1902, 1912, 1933, 1943, 1964, 1969, 1985, 2007, 2016, 2042, 
Lime samples: 
10, 108, 206, 295, 393, 486, 586, 686, 768, 867, 971, 1065, 1164, 1256, 1356, 1444, 1537, 1636, 1741, 1829, 1933, 
Insertion Distribution: 
	LOAD 15065 0 0 0 0 0 45761 956355 
	RFO 27306 0 0 0 0 0 48471 586369 
	PREF 0 0 0 0 0 0 0 0 
	WRITEBACK 0 0 0 0 0 0 0 755327 
Total Prefetch Downgrades: 0
