
*** ChampSim Multicore Out-of-Order Simulator ***

Warmup Instructions: 10000000
Simulation Instructions: 100000000
Configuration: 1
Number of CPUs: 1
LLC sets: 2048
LLC ways: 16
Off-chip DRAM Channels: 1 Width: 64-bit Data Rate: 1600 MT/s

CPU 0 runs /datasets/cs240c-wi22-a00-public/data/Assignment2-gz/zeusmp_100B.trace.gz
Heartbeat CPU 0 instructions: 1000002 cycles: 464468 heartbeat IPC: 2.15301 cumulative IPC: 2.15301 (Simulation time: 0 hr 0 min 17 sec) 
select_counter is 306
Heartbeat CPU 0 instructions: 2000001 cycles: 928928 heartbeat IPC: 2.15304 cumulative IPC: 2.15302 (Simulation time: 0 hr 0 min 34 sec) 
select_counter is 179
Heartbeat CPU 0 instructions: 3000003 cycles: 1393617 heartbeat IPC: 2.15198 cumulative IPC: 2.15267 (Simulation time: 0 hr 0 min 51 sec) 
select_counter is 90
Heartbeat CPU 0 instructions: 4000000 cycles: 1858062 heartbeat IPC: 2.1531 cumulative IPC: 2.15278 (Simulation time: 0 hr 1 min 9 sec) 
select_counter is 995
Heartbeat CPU 0 instructions: 5000003 cycles: 2322491 heartbeat IPC: 2.15319 cumulative IPC: 2.15286 (Simulation time: 0 hr 1 min 26 sec) 
select_counter is 833
Heartbeat CPU 0 instructions: 6000001 cycles: 2787246 heartbeat IPC: 2.15167 cumulative IPC: 2.15266 (Simulation time: 0 hr 1 min 44 sec) 
select_counter is 732
Heartbeat CPU 0 instructions: 7000001 cycles: 3251588 heartbeat IPC: 2.15358 cumulative IPC: 2.15279 (Simulation time: 0 hr 2 min 2 sec) 
select_counter is 639
Heartbeat CPU 0 instructions: 8000000 cycles: 3716295 heartbeat IPC: 2.15189 cumulative IPC: 2.15268 (Simulation time: 0 hr 2 min 20 sec) 
select_counter is 549
Heartbeat CPU 0 instructions: 9000003 cycles: 4180638 heartbeat IPC: 2.15359 cumulative IPC: 2.15278 (Simulation time: 0 hr 2 min 38 sec) 
select_counter is 437
Heartbeat CPU 0 instructions: 10000001 cycles: 4645608 heartbeat IPC: 2.15067 cumulative IPC: 2.15257 (Simulation time: 0 hr 2 min 55 sec) 
select_counter is 331

Warmup complete CPU 0 instructions: 10000001 cycles: 4645608 (Simulation time: 0 hr 2 min 55 sec) 

Heartbeat CPU 0 instructions: 11000000 cycles: 5574208 heartbeat IPC: 1.07689 cumulative IPC: 1.07689 (Simulation time: 0 hr 3 min 17 sec) 
select_counter is 266
Heartbeat CPU 0 instructions: 12000000 cycles: 6508144 heartbeat IPC: 1.07074 cumulative IPC: 1.0738 (Simulation time: 0 hr 3 min 37 sec) 
select_counter is 189
Heartbeat CPU 0 instructions: 13000001 cycles: 7459731 heartbeat IPC: 1.05088 cumulative IPC: 1.06605 (Simulation time: 0 hr 3 min 58 sec) 
select_counter is 68
Heartbeat CPU 0 instructions: 14000003 cycles: 8387109 heartbeat IPC: 1.07831 cumulative IPC: 1.06909 (Simulation time: 0 hr 4 min 18 sec) 
select_counter is 1019
Heartbeat CPU 0 instructions: 15000002 cycles: 9313498 heartbeat IPC: 1.07946 cumulative IPC: 1.07115 (Simulation time: 0 hr 4 min 38 sec) 
select_counter is 934
Heartbeat CPU 0 instructions: 16000000 cycles: 10238066 heartbeat IPC: 1.08158 cumulative IPC: 1.07287 (Simulation time: 0 hr 4 min 59 sec) 
select_counter is 842
Heartbeat CPU 0 instructions: 17000003 cycles: 11204830 heartbeat IPC: 1.03438 cumulative IPC: 1.0672 (Simulation time: 0 hr 5 min 19 sec) 
select_counter is 659
Heartbeat CPU 0 instructions: 18000000 cycles: 12093499 heartbeat IPC: 1.12528 cumulative IPC: 1.07413 (Simulation time: 0 hr 5 min 39 sec) 
select_counter is 469
Heartbeat CPU 0 instructions: 19000002 cycles: 12975335 heartbeat IPC: 1.134 cumulative IPC: 1.08047 (Simulation time: 0 hr 5 min 58 sec) 
select_counter is 304
Heartbeat CPU 0 instructions: 20000000 cycles: 13837390 heartbeat IPC: 1.16002 cumulative IPC: 1.08793 (Simulation time: 0 hr 6 min 17 sec) 
select_counter is 225
Heartbeat CPU 0 instructions: 21000001 cycles: 14723902 heartbeat IPC: 1.12802 cumulative IPC: 1.09145 (Simulation time: 0 hr 6 min 37 sec) 
select_counter is 163
Heartbeat CPU 0 instructions: 22000001 cycles: 15592542 heartbeat IPC: 1.15122 cumulative IPC: 1.0962 (Simulation time: 0 hr 6 min 56 sec) 
select_counter is 51
Heartbeat CPU 0 instructions: 23000002 cycles: 16478107 heartbeat IPC: 1.12922 cumulative IPC: 1.09867 (Simulation time: 0 hr 7 min 16 sec) 
select_counter is 981
Heartbeat CPU 0 instructions: 24000000 cycles: 17343467 heartbeat IPC: 1.15559 cumulative IPC: 1.10255 (Simulation time: 0 hr 7 min 36 sec) 
select_counter is 873
Heartbeat CPU 0 instructions: 25000002 cycles: 18222757 heartbeat IPC: 1.13728 cumulative IPC: 1.1048 (Simulation time: 0 hr 7 min 57 sec) 
select_counter is 785
Heartbeat CPU 0 instructions: 26000001 cycles: 19093154 heartbeat IPC: 1.1489 cumulative IPC: 1.10745 (Simulation time: 0 hr 8 min 18 sec) 
select_counter is 688
Heartbeat CPU 0 instructions: 27000000 cycles: 19975694 heartbeat IPC: 1.13309 cumulative IPC: 1.10893 (Simulation time: 0 hr 8 min 37 sec) 
select_counter is 586
Heartbeat CPU 0 instructions: 28000000 cycles: 20842856 heartbeat IPC: 1.15319 cumulative IPC: 1.1113 (Simulation time: 0 hr 8 min 56 sec) 
select_counter is 465
Heartbeat CPU 0 instructions: 29000000 cycles: 21705619 heartbeat IPC: 1.15907 cumulative IPC: 1.11372 (Simulation time: 0 hr 9 min 16 sec) 
select_counter is 374
Heartbeat CPU 0 instructions: 30000003 cycles: 22586606 heartbeat IPC: 1.13509 cumulative IPC: 1.11477 (Simulation time: 0 hr 9 min 36 sec) 
select_counter is 288
Heartbeat CPU 0 instructions: 31000000 cycles: 23453996 heartbeat IPC: 1.15288 cumulative IPC: 1.11652 (Simulation time: 0 hr 9 min 57 sec) 
select_counter is 182
Heartbeat CPU 0 instructions: 32000000 cycles: 24339239 heartbeat IPC: 1.12963 cumulative IPC: 1.11711 (Simulation time: 0 hr 10 min 16 sec) 
select_counter is 62
Heartbeat CPU 0 instructions: 33000002 cycles: 25204746 heartbeat IPC: 1.15539 cumulative IPC: 1.11872 (Simulation time: 0 hr 10 min 36 sec) 
select_counter is 1001
Heartbeat CPU 0 instructions: 34000002 cycles: 26087485 heartbeat IPC: 1.13284 cumulative IPC: 1.11931 (Simulation time: 0 hr 10 min 57 sec) 
select_counter is 886
Heartbeat CPU 0 instructions: 35000003 cycles: 26955915 heartbeat IPC: 1.1515 cumulative IPC: 1.12056 (Simulation time: 0 hr 11 min 18 sec) 
select_counter is 785
Heartbeat CPU 0 instructions: 36000000 cycles: 27836088 heartbeat IPC: 1.13614 cumulative IPC: 1.12115 (Simulation time: 0 hr 11 min 38 sec) 
select_counter is 675
Heartbeat CPU 0 instructions: 37000001 cycles: 28704984 heartbeat IPC: 1.15089 cumulative IPC: 1.12222 (Simulation time: 0 hr 11 min 59 sec) 
select_counter is 588
Heartbeat CPU 0 instructions: 38000003 cycles: 29581314 heartbeat IPC: 1.14112 cumulative IPC: 1.12289 (Simulation time: 0 hr 12 min 19 sec) 
select_counter is 484
Heartbeat CPU 0 instructions: 39000001 cycles: 30446143 heartbeat IPC: 1.1563 cumulative IPC: 1.12401 (Simulation time: 0 hr 12 min 40 sec) 
select_counter is 406
Heartbeat CPU 0 instructions: 40000000 cycles: 31326770 heartbeat IPC: 1.13555 cumulative IPC: 1.12439 (Simulation time: 0 hr 13 min 0 sec) 
select_counter is 278
Heartbeat CPU 0 instructions: 41000002 cycles: 32200454 heartbeat IPC: 1.14458 cumulative IPC: 1.12503 (Simulation time: 0 hr 13 min 20 sec) 
select_counter is 185
Heartbeat CPU 0 instructions: 42000000 cycles: 33067213 heartbeat IPC: 1.15372 cumulative IPC: 1.1259 (Simulation time: 0 hr 13 min 40 sec) 
select_counter is 90
Heartbeat CPU 0 instructions: 43000003 cycles: 33946131 heartbeat IPC: 1.13777 cumulative IPC: 1.12626 (Simulation time: 0 hr 14 min 0 sec) 
select_counter is 1006
Heartbeat CPU 0 instructions: 44000000 cycles: 34814775 heartbeat IPC: 1.15122 cumulative IPC: 1.12698 (Simulation time: 0 hr 14 min 20 sec) 
select_counter is 939
Heartbeat CPU 0 instructions: 45000001 cycles: 35689898 heartbeat IPC: 1.1427 cumulative IPC: 1.12742 (Simulation time: 0 hr 14 min 40 sec) 
select_counter is 814
Heartbeat CPU 0 instructions: 46000002 cycles: 36558019 heartbeat IPC: 1.15191 cumulative IPC: 1.12809 (Simulation time: 0 hr 15 min 0 sec) 
select_counter is 715
Heartbeat CPU 0 instructions: 47000003 cycles: 37433118 heartbeat IPC: 1.14273 cumulative IPC: 1.12848 (Simulation time: 0 hr 15 min 21 sec) 
select_counter is 593
Heartbeat CPU 0 instructions: 48000000 cycles: 38296514 heartbeat IPC: 1.15821 cumulative IPC: 1.12924 (Simulation time: 0 hr 15 min 41 sec) 
select_counter is 486
Heartbeat CPU 0 instructions: 49000001 cycles: 39170105 heartbeat IPC: 1.1447 cumulative IPC: 1.12963 (Simulation time: 0 hr 16 min 2 sec) 
select_counter is 403
Heartbeat CPU 0 instructions: 50000001 cycles: 40041212 heartbeat IPC: 1.14796 cumulative IPC: 1.13008 (Simulation time: 0 hr 16 min 22 sec) 
select_counter is 332
Heartbeat CPU 0 instructions: 51000002 cycles: 40921762 heartbeat IPC: 1.13566 cumulative IPC: 1.13022 (Simulation time: 0 hr 16 min 42 sec) 
select_counter is 222
Heartbeat CPU 0 instructions: 52000000 cycles: 41790563 heartbeat IPC: 1.15101 cumulative IPC: 1.13071 (Simulation time: 0 hr 17 min 3 sec) 
select_counter is 127
Heartbeat CPU 0 instructions: 53000001 cycles: 42671095 heartbeat IPC: 1.13568 cumulative IPC: 1.13082 (Simulation time: 0 hr 17 min 24 sec) 
select_counter is 7
Heartbeat CPU 0 instructions: 54000003 cycles: 43530352 heartbeat IPC: 1.1638 cumulative IPC: 1.13155 (Simulation time: 0 hr 17 min 45 sec) 
select_counter is 808
Heartbeat CPU 0 instructions: 55000003 cycles: 44407975 heartbeat IPC: 1.13944 cumulative IPC: 1.13172 (Simulation time: 0 hr 18 min 6 sec) 
select_counter is 607
Heartbeat CPU 0 instructions: 56000000 cycles: 45281999 heartbeat IPC: 1.14413 cumulative IPC: 1.13199 (Simulation time: 0 hr 18 min 28 sec) 
select_counter is 396
Heartbeat CPU 0 instructions: 57000003 cycles: 46149375 heartbeat IPC: 1.15291 cumulative IPC: 1.13243 (Simulation time: 0 hr 18 min 51 sec) 
select_counter is 162
Heartbeat CPU 0 instructions: 58000003 cycles: 47026146 heartbeat IPC: 1.14055 cumulative IPC: 1.1326 (Simulation time: 0 hr 19 min 12 sec) 
select_counter is 934
Heartbeat CPU 0 instructions: 59000002 cycles: 47894325 heartbeat IPC: 1.15184 cumulative IPC: 1.13298 (Simulation time: 0 hr 19 min 32 sec) 
select_counter is 697
Heartbeat CPU 0 instructions: 60000000 cycles: 48775501 heartbeat IPC: 1.13484 cumulative IPC: 1.13302 (Simulation time: 0 hr 19 min 51 sec) 
select_counter is 462
Heartbeat CPU 0 instructions: 61000000 cycles: 49642519 heartbeat IPC: 1.15338 cumulative IPC: 1.13341 (Simulation time: 0 hr 20 min 12 sec) 
select_counter is 239
Heartbeat CPU 0 instructions: 62000001 cycles: 50520529 heartbeat IPC: 1.13894 cumulative IPC: 1.13352 (Simulation time: 0 hr 20 min 31 sec) 
select_counter is 10
Heartbeat CPU 0 instructions: 63000001 cycles: 51382053 heartbeat IPC: 1.16073 cumulative IPC: 1.13402 (Simulation time: 0 hr 20 min 51 sec) 
select_counter is 813
Heartbeat CPU 0 instructions: 64000000 cycles: 52266686 heartbeat IPC: 1.13041 cumulative IPC: 1.13395 (Simulation time: 0 hr 21 min 11 sec) 
select_counter is 543
Heartbeat CPU 0 instructions: 65000003 cycles: 53136233 heartbeat IPC: 1.15003 cumulative IPC: 1.13424 (Simulation time: 0 hr 21 min 31 sec) 
select_counter is 373
Heartbeat CPU 0 instructions: 66000002 cycles: 54016784 heartbeat IPC: 1.13565 cumulative IPC: 1.13427 (Simulation time: 0 hr 21 min 51 sec) 
select_counter is 100
Heartbeat CPU 0 instructions: 67000000 cycles: 54882000 heartbeat IPC: 1.15578 cumulative IPC: 1.13464 (Simulation time: 0 hr 22 min 11 sec) 
select_counter is 910
Heartbeat CPU 0 instructions: 68000000 cycles: 55762623 heartbeat IPC: 1.13556 cumulative IPC: 1.13465 (Simulation time: 0 hr 22 min 31 sec) 
select_counter is 644
Heartbeat CPU 0 instructions: 69000000 cycles: 56633883 heartbeat IPC: 1.14776 cumulative IPC: 1.13487 (Simulation time: 0 hr 22 min 51 sec) 
select_counter is 456
Heartbeat CPU 0 instructions: 70000003 cycles: 57501337 heartbeat IPC: 1.1528 cumulative IPC: 1.13517 (Simulation time: 0 hr 23 min 11 sec) 
select_counter is 254
Heartbeat CPU 0 instructions: 71000003 cycles: 58381360 heartbeat IPC: 1.13633 cumulative IPC: 1.13518 (Simulation time: 0 hr 23 min 31 sec) 
select_counter is 1
Heartbeat CPU 0 instructions: 72000000 cycles: 59245449 heartbeat IPC: 1.15728 cumulative IPC: 1.13553 (Simulation time: 0 hr 23 min 52 sec) 
select_counter is 805
Heartbeat CPU 0 instructions: 73000002 cycles: 60130254 heartbeat IPC: 1.13019 cumulative IPC: 1.13545 (Simulation time: 0 hr 24 min 13 sec) 
select_counter is 542
Heartbeat CPU 0 instructions: 74000003 cycles: 60996311 heartbeat IPC: 1.15466 cumulative IPC: 1.13574 (Simulation time: 0 hr 24 min 36 sec) 
select_counter is 324
Heartbeat CPU 0 instructions: 75000003 cycles: 61872905 heartbeat IPC: 1.14078 cumulative IPC: 1.13582 (Simulation time: 0 hr 25 min 2 sec) 
select_counter is 87
Heartbeat CPU 0 instructions: 76000000 cycles: 62738216 heartbeat IPC: 1.15565 cumulative IPC: 1.13612 (Simulation time: 0 hr 25 min 23 sec) 
select_counter is 862
Heartbeat CPU 0 instructions: 77000003 cycles: 63621418 heartbeat IPC: 1.13225 cumulative IPC: 1.13606 (Simulation time: 0 hr 25 min 43 sec) 
select_counter is 613
Heartbeat CPU 0 instructions: 78000001 cycles: 64492442 heartbeat IPC: 1.14807 cumulative IPC: 1.13623 (Simulation time: 0 hr 26 min 4 sec) 
select_counter is 404
Heartbeat CPU 0 instructions: 79000000 cycles: 65371561 heartbeat IPC: 1.1375 cumulative IPC: 1.13625 (Simulation time: 0 hr 26 min 24 sec) 
select_counter is 175
Heartbeat CPU 0 instructions: 80000000 cycles: 66237554 heartbeat IPC: 1.15474 cumulative IPC: 1.13651 (Simulation time: 0 hr 26 min 46 sec) 
select_counter is 944
Heartbeat CPU 0 instructions: 81000003 cycles: 67116636 heartbeat IPC: 1.13755 cumulative IPC: 1.13653 (Simulation time: 0 hr 27 min 7 sec) 
select_counter is 728
Heartbeat CPU 0 instructions: 82000001 cycles: 67989662 heartbeat IPC: 1.14544 cumulative IPC: 1.13665 (Simulation time: 0 hr 27 min 26 sec) 
select_counter is 543
Heartbeat CPU 0 instructions: 83000002 cycles: 68856683 heartbeat IPC: 1.15338 cumulative IPC: 1.13688 (Simulation time: 0 hr 27 min 48 sec) 
select_counter is 309
Heartbeat CPU 0 instructions: 84000000 cycles: 69733702 heartbeat IPC: 1.14022 cumulative IPC: 1.13692 (Simulation time: 0 hr 28 min 10 sec) 
select_counter is 49
Heartbeat CPU 0 instructions: 85000001 cycles: 70599151 heartbeat IPC: 1.15547 cumulative IPC: 1.13716 (Simulation time: 0 hr 28 min 30 sec) 
select_counter is 851
Heartbeat CPU 0 instructions: 86000001 cycles: 71478199 heartbeat IPC: 1.13759 cumulative IPC: 1.13717 (Simulation time: 0 hr 28 min 50 sec) 
select_counter is 595
Heartbeat CPU 0 instructions: 87000001 cycles: 72350807 heartbeat IPC: 1.14599 cumulative IPC: 1.13728 (Simulation time: 0 hr 29 min 9 sec) 
select_counter is 406
Heartbeat CPU 0 instructions: 88000000 cycles: 73230193 heartbeat IPC: 1.13716 cumulative IPC: 1.13728 (Simulation time: 0 hr 29 min 29 sec) 
select_counter is 144
Heartbeat CPU 0 instructions: 89000003 cycles: 74094118 heartbeat IPC: 1.15751 cumulative IPC: 1.13753 (Simulation time: 0 hr 29 min 47 sec) 
select_counter is 924
Heartbeat CPU 0 instructions: 90000001 cycles: 74971312 heartbeat IPC: 1.14 cumulative IPC: 1.13756 (Simulation time: 0 hr 30 min 8 sec) 
select_counter is 706
Heartbeat CPU 0 instructions: 91000000 cycles: 75843859 heartbeat IPC: 1.14607 cumulative IPC: 1.13767 (Simulation time: 0 hr 30 min 28 sec) 
select_counter is 474
Heartbeat CPU 0 instructions: 92000000 cycles: 76724459 heartbeat IPC: 1.13559 cumulative IPC: 1.13764 (Simulation time: 0 hr 30 min 48 sec) 
select_counter is 238
Heartbeat CPU 0 instructions: 93000001 cycles: 77590388 heartbeat IPC: 1.15483 cumulative IPC: 1.13785 (Simulation time: 0 hr 31 min 8 sec) 
select_counter is 1020
Heartbeat CPU 0 instructions: 94000003 cycles: 78467314 heartbeat IPC: 1.14035 cumulative IPC: 1.13788 (Simulation time: 0 hr 31 min 27 sec) 
select_counter is 830
Heartbeat CPU 0 instructions: 95000003 cycles: 79335494 heartbeat IPC: 1.15183 cumulative IPC: 1.13804 (Simulation time: 0 hr 31 min 46 sec) 
select_counter is 581
Heartbeat CPU 0 instructions: 96000000 cycles: 80209881 heartbeat IPC: 1.14365 cumulative IPC: 1.1381 (Simulation time: 0 hr 32 min 6 sec) 
select_counter is 352
Heartbeat CPU 0 instructions: 97000000 cycles: 81089528 heartbeat IPC: 1.13682 cumulative IPC: 1.13809 (Simulation time: 0 hr 32 min 27 sec) 
select_counter is 115
Heartbeat CPU 0 instructions: 98000001 cycles: 81954284 heartbeat IPC: 1.1564 cumulative IPC: 1.13829 (Simulation time: 0 hr 32 min 49 sec) 
select_counter is 904
Heartbeat CPU 0 instructions: 99000001 cycles: 82831660 heartbeat IPC: 1.13976 cumulative IPC: 1.13831 (Simulation time: 0 hr 33 min 9 sec) 
select_counter is 672
Heartbeat CPU 0 instructions: 100000000 cycles: 83704039 heartbeat IPC: 1.14629 cumulative IPC: 1.1384 (Simulation time: 0 hr 33 min 29 sec) 
select_counter is 447
Heartbeat CPU 0 instructions: 101000002 cycles: 84583023 heartbeat IPC: 1.13768 cumulative IPC: 1.13839 (Simulation time: 0 hr 33 min 50 sec) 
select_counter is 208
Heartbeat CPU 0 instructions: 102000003 cycles: 85449301 heartbeat IPC: 1.15436 cumulative IPC: 1.13856 (Simulation time: 0 hr 34 min 9 sec) 
select_counter is 2
Heartbeat CPU 0 instructions: 103000001 cycles: 86324641 heartbeat IPC: 1.14241 cumulative IPC: 1.1386 (Simulation time: 0 hr 34 min 29 sec) 
select_counter is 750
Heartbeat CPU 0 instructions: 104000000 cycles: 87190197 heartbeat IPC: 1.15533 cumulative IPC: 1.13878 (Simulation time: 0 hr 34 min 48 sec) 
select_counter is 526
Heartbeat CPU 0 instructions: 105000003 cycles: 88072989 heartbeat IPC: 1.13277 cumulative IPC: 1.13871 (Simulation time: 0 hr 35 min 12 sec) 
select_counter is 306
Heartbeat CPU 0 instructions: 106000002 cycles: 88938522 heartbeat IPC: 1.15536 cumulative IPC: 1.13889 (Simulation time: 0 hr 35 min 29 sec) 
select_counter is 71
Heartbeat CPU 0 instructions: 107000000 cycles: 89814011 heartbeat IPC: 1.14222 cumulative IPC: 1.13892 (Simulation time: 0 hr 35 min 46 sec) 
select_counter is 849
Heartbeat CPU 0 instructions: 108000000 cycles: 90681700 heartbeat IPC: 1.15249 cumulative IPC: 1.13906 (Simulation time: 0 hr 36 min 3 sec) 
select_counter is 643
Heartbeat CPU 0 instructions: 109000002 cycles: 91553174 heartbeat IPC: 1.14748 cumulative IPC: 1.13914 (Simulation time: 0 hr 36 min 19 sec) 
select_counter is 427
Heartbeat CPU 0 instructions: 110000000 cycles: 92435332 heartbeat IPC: 1.13358 cumulative IPC: 1.13909 (Simulation time: 0 hr 36 min 35 sec) 
select_counter is 205
Finished CPU 0 instructions: 100000003 cycles: 87789725 cummulative IPC: 1.13909 (Simulation time: 0 hr 36 min 35 sec) 

ChampSim completed all CPUs

Region of Interest Statistics

CPU 0 cummulative IPC: 1.13909 instructions: 100000003 cycles: 87789725
LLC TOTAL     ACCESS:     789886  HIT:     144806  MISS:     645080
LLC LOAD      ACCESS:     401403  HIT:      92248  MISS:     309155
LLC RFO       ACCESS:     194178  HIT:        912  MISS:     193266
LLC PREFETCH  ACCESS:          0  HIT:          0  MISS:          0
LLC WRITEBACK ACCESS:     194305  HIT:      51646  MISS:     142659
Ship samples: 
5, 36, 65, 109, 131, 160, 194, 227, 269, 301, 328, 365, 392, 428, 460, 481, 521, 547, 583, 614, 654, 676, 707, 748, 778, 800, 833, 871, 906, 930, 963, 996, 1032, 1058, 1090, 1120, 1164, 1185, 1218, 1262, 1282, 1325, 1345, 1378, 1418, 1450, 1474, 1506, 1545, 1573, 1605, 1632, 1671, 1696, 1735, 1762, 1801, 1824, 1864, 1898, 1931, 1963, 1985, 2030, 
Lime duel samples: 
11, 27, 45, 59, 73, 80, 104, 114, 132, 151, 165, 188, 206, 220, 238, 242, 264, 282, 297, 312, 320, 341, 359, 371, 391, 412, 426, 438, 456, 466, 482, 507, 514, 530, 545, 563, 578, 597, 620, 626, 648, 670, 686, 689, 708, 730, 740, 761, 770, 786, 804, 819, 844, 862, 874, 891, 910, 920, 939, 951, 960, 986, 994, 1019, 1026, 1040, 1067, 1078, 1096, 1118, 1133, 1142, 1153, 1171, 1195, 1201, 1219, 1234, 1253, 1265, 1286, 1298, 1321, 1336, 1349, 1361, 1383, 1398, 1415, 1434, 1443, 1462, 1477, 1492, 1512, 1528, 1547, 1552, 1580, 1596, 1611, 1624, 1638, 1652, 1675, 1683, 1701, 1723, 1737, 1753, 1770, 1780, 1804, 1817, 1831, 1845, 1865, 1882, 1892, 1916, 1925, 1937, 1966, 1974, 1989, 2009, 2021, 2036, 
Lime samples: 
11, 104, 206, 297, 391, 482, 578, 686, 770, 874, 960, 1067, 1153, 1253, 1349, 1443, 1547, 1638, 1737, 1831, 1925, 
Insertion Distribution: 
	LOAD 46435 0 0 0 0 0 14870 110331 
	RFO 0 0 0 0 0 0 6534 96680 
	PREF 0 0 0 0 0 0 0 0 
	WRITEBACK 0 0 0 0 0 0 0 84375 
Total Prefetch Downgrades: 0
