
*** ChampSim Multicore Out-of-Order Simulator ***

Warmup Instructions: 10000000
Simulation Instructions: 100000000
Configuration: 1
Number of CPUs: 1
LLC sets: 2048
LLC ways: 16
Off-chip DRAM Channels: 1 Width: 64-bit Data Rate: 1600 MT/s

CPU 0 runs /datasets/cs240c-wi22-a00-public/data/Assignment2-gz/leslie3d_1116B.trace.gz
Heartbeat CPU 0 instructions: 1000001 cycles: 532936 heartbeat IPC: 1.8764 cumulative IPC: 1.8764 (Simulation time: 0 hr 0 min 25 sec) 
select_counter is 1002
Heartbeat CPU 0 instructions: 2000003 cycles: 1066398 heartbeat IPC: 1.87455 cumulative IPC: 1.87548 (Simulation time: 0 hr 0 min 49 sec) 
select_counter is 500
Heartbeat CPU 0 instructions: 3000003 cycles: 1600516 heartbeat IPC: 1.87225 cumulative IPC: 1.8744 (Simulation time: 0 hr 1 min 12 sec) 
select_counter is 73
Heartbeat CPU 0 instructions: 4000000 cycles: 2133430 heartbeat IPC: 1.87647 cumulative IPC: 1.87492 (Simulation time: 0 hr 1 min 36 sec) 
select_counter is 611
Heartbeat CPU 0 instructions: 5000001 cycles: 2666219 heartbeat IPC: 1.87692 cumulative IPC: 1.87532 (Simulation time: 0 hr 2 min 0 sec) 
select_counter is 1005
Heartbeat CPU 0 instructions: 6000001 cycles: 3199451 heartbeat IPC: 1.87536 cumulative IPC: 1.87532 (Simulation time: 0 hr 2 min 24 sec) 
select_counter is 467
Heartbeat CPU 0 instructions: 7000001 cycles: 3732914 heartbeat IPC: 1.87454 cumulative IPC: 1.87521 (Simulation time: 0 hr 2 min 49 sec) 
select_counter is 9
Heartbeat CPU 0 instructions: 8000000 cycles: 4266572 heartbeat IPC: 1.87386 cumulative IPC: 1.87504 (Simulation time: 0 hr 3 min 12 sec) 
select_counter is 518
Heartbeat CPU 0 instructions: 9000003 cycles: 4799340 heartbeat IPC: 1.877 cumulative IPC: 1.87526 (Simulation time: 0 hr 3 min 35 sec) 
select_counter is 2
Heartbeat CPU 0 instructions: 10000001 cycles: 5332540 heartbeat IPC: 1.87547 cumulative IPC: 1.87528 (Simulation time: 0 hr 3 min 58 sec) 
select_counter is 533

Warmup complete CPU 0 instructions: 10000001 cycles: 5332540 (Simulation time: 0 hr 3 min 58 sec) 

Heartbeat CPU 0 instructions: 11000001 cycles: 6900165 heartbeat IPC: 0.637908 cumulative IPC: 0.637908 (Simulation time: 0 hr 4 min 27 sec) 
select_counter is 102
Heartbeat CPU 0 instructions: 12000000 cycles: 8385269 heartbeat IPC: 0.673353 cumulative IPC: 0.655151 (Simulation time: 0 hr 4 min 54 sec) 
select_counter is 666
Heartbeat CPU 0 instructions: 13000001 cycles: 9894801 heartbeat IPC: 0.662458 cumulative IPC: 0.657569 (Simulation time: 0 hr 5 min 23 sec) 
select_counter is 200
Heartbeat CPU 0 instructions: 14000003 cycles: 11395017 heartbeat IPC: 0.666572 cumulative IPC: 0.659797 (Simulation time: 0 hr 5 min 49 sec) 
select_counter is 710
Heartbeat CPU 0 instructions: 15000000 cycles: 12930651 heartbeat IPC: 0.651195 cumulative IPC: 0.658058 (Simulation time: 0 hr 6 min 17 sec) 
select_counter is 204
Heartbeat CPU 0 instructions: 16000000 cycles: 14395028 heartbeat IPC: 0.682884 cumulative IPC: 0.66207 (Simulation time: 0 hr 6 min 43 sec) 
select_counter is 720
Heartbeat CPU 0 instructions: 17000003 cycles: 15838277 heartbeat IPC: 0.692883 cumulative IPC: 0.666303 (Simulation time: 0 hr 7 min 10 sec) 
select_counter is 292
Heartbeat CPU 0 instructions: 18000001 cycles: 17327191 heartbeat IPC: 0.671629 cumulative IPC: 0.666964 (Simulation time: 0 hr 7 min 36 sec) 
select_counter is 880
Heartbeat CPU 0 instructions: 19000001 cycles: 18833560 heartbeat IPC: 0.663848 cumulative IPC: 0.666616 (Simulation time: 0 hr 8 min 2 sec) 
select_counter is 436
Heartbeat CPU 0 instructions: 20000000 cycles: 20257171 heartbeat IPC: 0.702438 cumulative IPC: 0.670033 (Simulation time: 0 hr 8 min 31 sec) 
select_counter is 1023
Heartbeat CPU 0 instructions: 21000000 cycles: 21807871 heartbeat IPC: 0.64487 cumulative IPC: 0.667665 (Simulation time: 0 hr 8 min 59 sec) 
select_counter is 592
Heartbeat CPU 0 instructions: 22000000 cycles: 23287671 heartbeat IPC: 0.675767 cumulative IPC: 0.668333 (Simulation time: 0 hr 9 min 25 sec) 
select_counter is 153
Heartbeat CPU 0 instructions: 23000003 cycles: 24816726 heartbeat IPC: 0.654001 cumulative IPC: 0.667208 (Simulation time: 0 hr 9 min 51 sec) 
select_counter is 720
Heartbeat CPU 0 instructions: 24000000 cycles: 26298917 heartbeat IPC: 0.674675 cumulative IPC: 0.667736 (Simulation time: 0 hr 10 min 18 sec) 
select_counter is 309
Heartbeat CPU 0 instructions: 25000002 cycles: 27776093 heartbeat IPC: 0.676969 cumulative IPC: 0.668343 (Simulation time: 0 hr 10 min 44 sec) 
select_counter is 933
Heartbeat CPU 0 instructions: 26000002 cycles: 29344533 heartbeat IPC: 0.637576 cumulative IPC: 0.666334 (Simulation time: 0 hr 11 min 11 sec) 
select_counter is 505
Heartbeat CPU 0 instructions: 27000001 cycles: 30841858 heartbeat IPC: 0.667857 cumulative IPC: 0.666423 (Simulation time: 0 hr 11 min 38 sec) 
select_counter is 125
Heartbeat CPU 0 instructions: 28000000 cycles: 32347614 heartbeat IPC: 0.664118 cumulative IPC: 0.666295 (Simulation time: 0 hr 12 min 3 sec) 
select_counter is 782
Heartbeat CPU 0 instructions: 29000001 cycles: 33849999 heartbeat IPC: 0.665609 cumulative IPC: 0.666259 (Simulation time: 0 hr 12 min 28 sec) 
select_counter is 369
Heartbeat CPU 0 instructions: 30000002 cycles: 35367278 heartbeat IPC: 0.659075 cumulative IPC: 0.665896 (Simulation time: 0 hr 12 min 55 sec) 
select_counter is 980
Heartbeat CPU 0 instructions: 31000001 cycles: 36917424 heartbeat IPC: 0.6451 cumulative IPC: 0.664875 (Simulation time: 0 hr 13 min 21 sec) 
select_counter is 556
Heartbeat CPU 0 instructions: 32000000 cycles: 38395368 heartbeat IPC: 0.676615 cumulative IPC: 0.6654 (Simulation time: 0 hr 13 min 46 sec) 
select_counter is 148
Heartbeat CPU 0 instructions: 33000002 cycles: 39906626 heartbeat IPC: 0.661702 cumulative IPC: 0.665238 (Simulation time: 0 hr 14 min 12 sec) 
select_counter is 773
Heartbeat CPU 0 instructions: 34000002 cycles: 41380306 heartbeat IPC: 0.678573 cumulative IPC: 0.665783 (Simulation time: 0 hr 14 min 40 sec) 
select_counter is 377
Heartbeat CPU 0 instructions: 35000000 cycles: 42858605 heartbeat IPC: 0.676452 cumulative IPC: 0.666204 (Simulation time: 0 hr 15 min 9 sec) 
select_counter is 995
Heartbeat CPU 0 instructions: 36000000 cycles: 44383148 heartbeat IPC: 0.655934 cumulative IPC: 0.665803 (Simulation time: 0 hr 15 min 37 sec) 
select_counter is 585
Heartbeat CPU 0 instructions: 37000003 cycles: 46168801 heartbeat IPC: 0.560021 cumulative IPC: 0.661177 (Simulation time: 0 hr 16 min 8 sec) 
select_counter is 985
Heartbeat CPU 0 instructions: 38000003 cycles: 48270663 heartbeat IPC: 0.475769 cumulative IPC: 0.652101 (Simulation time: 0 hr 16 min 35 sec) 
select_counter is 501
Heartbeat CPU 0 instructions: 39000003 cycles: 50292607 heartbeat IPC: 0.494574 cumulative IPC: 0.645017 (Simulation time: 0 hr 17 min 2 sec) 
select_counter is 22
Heartbeat CPU 0 instructions: 40000000 cycles: 52408758 heartbeat IPC: 0.472555 cumulative IPC: 0.637264 (Simulation time: 0 hr 17 min 32 sec) 
select_counter is 554
Heartbeat CPU 0 instructions: 41000002 cycles: 54412142 heartbeat IPC: 0.499156 cumulative IPC: 0.631627 (Simulation time: 0 hr 18 min 0 sec) 
select_counter is 68
Heartbeat CPU 0 instructions: 42000001 cycles: 56523330 heartbeat IPC: 0.473666 cumulative IPC: 0.625112 (Simulation time: 0 hr 18 min 33 sec) 
select_counter is 609
Heartbeat CPU 0 instructions: 43000003 cycles: 58549227 heartbeat IPC: 0.493609 cumulative IPC: 0.620106 (Simulation time: 0 hr 19 min 4 sec) 
select_counter is 113
Heartbeat CPU 0 instructions: 44000000 cycles: 60658533 heartbeat IPC: 0.474088 cumulative IPC: 0.614539 (Simulation time: 0 hr 19 min 37 sec) 
select_counter is 674
Heartbeat CPU 0 instructions: 45000002 cycles: 62683885 heartbeat IPC: 0.493742 cumulative IPC: 0.610273 (Simulation time: 0 hr 20 min 7 sec) 
select_counter is 200
Heartbeat CPU 0 instructions: 46000002 cycles: 64694558 heartbeat IPC: 0.497346 cumulative IPC: 0.606448 (Simulation time: 0 hr 20 min 37 sec) 
select_counter is 918
Heartbeat CPU 0 instructions: 47000001 cycles: 66709846 heartbeat IPC: 0.496206 cumulative IPC: 0.602829 (Simulation time: 0 hr 21 min 5 sec) 
select_counter is 549
Heartbeat CPU 0 instructions: 48000000 cycles: 68725732 heartbeat IPC: 0.496059 cumulative IPC: 0.599433 (Simulation time: 0 hr 21 min 34 sec) 
select_counter is 159
Heartbeat CPU 0 instructions: 49000002 cycles: 71354290 heartbeat IPC: 0.380437 cumulative IPC: 0.590714 (Simulation time: 0 hr 22 min 6 sec) 
select_counter is 600
Heartbeat CPU 0 instructions: 50000000 cycles: 74270681 heartbeat IPC: 0.342889 cumulative IPC: 0.58023 (Simulation time: 0 hr 22 min 39 sec) 
select_counter is 461
Heartbeat CPU 0 instructions: 51000003 cycles: 77114018 heartbeat IPC: 0.3517 cumulative IPC: 0.571178 (Simulation time: 0 hr 23 min 12 sec) 
select_counter is 842
Heartbeat CPU 0 instructions: 52000000 cycles: 79996859 heartbeat IPC: 0.346879 cumulative IPC: 0.562518 (Simulation time: 0 hr 23 min 44 sec) 
select_counter is 873
Heartbeat CPU 0 instructions: 53000003 cycles: 83124673 heartbeat IPC: 0.319713 cumulative IPC: 0.552755 (Simulation time: 0 hr 24 min 19 sec) 
select_counter is 20
Heartbeat CPU 0 instructions: 54000000 cycles: 87296988 heartbeat IPC: 0.239674 cumulative IPC: 0.536818 (Simulation time: 0 hr 25 min 0 sec) 
select_counter is 294
Heartbeat CPU 0 instructions: 55000002 cycles: 91343547 heartbeat IPC: 0.247124 cumulative IPC: 0.523189 (Simulation time: 0 hr 25 min 41 sec) 
select_counter is 611
Heartbeat CPU 0 instructions: 56000000 cycles: 95444624 heartbeat IPC: 0.243838 cumulative IPC: 0.510475 (Simulation time: 0 hr 26 min 23 sec) 
select_counter is 862
Heartbeat CPU 0 instructions: 57000002 cycles: 99428558 heartbeat IPC: 0.251009 cumulative IPC: 0.49949 (Simulation time: 0 hr 27 min 4 sec) 
select_counter is 1009
Heartbeat CPU 0 instructions: 58000001 cycles: 103278505 heartbeat IPC: 0.259744 cumulative IPC: 0.490066 (Simulation time: 0 hr 27 min 44 sec) 
select_counter is 359
Heartbeat CPU 0 instructions: 59000000 cycles: 105350971 heartbeat IPC: 0.482516 cumulative IPC: 0.48991 (Simulation time: 0 hr 28 min 14 sec) 
select_counter is 786
Heartbeat CPU 0 instructions: 60000000 cycles: 107411952 heartbeat IPC: 0.485206 cumulative IPC: 0.489815 (Simulation time: 0 hr 28 min 45 sec) 
select_counter is 227
Heartbeat CPU 0 instructions: 61000003 cycles: 109514312 heartbeat IPC: 0.475657 cumulative IPC: 0.489529 (Simulation time: 0 hr 29 min 14 sec) 
select_counter is 740
Heartbeat CPU 0 instructions: 62000002 cycles: 111534310 heartbeat IPC: 0.49505 cumulative IPC: 0.489634 (Simulation time: 0 hr 29 min 43 sec) 
select_counter is 458
Heartbeat CPU 0 instructions: 63000003 cycles: 113528905 heartbeat IPC: 0.501355 cumulative IPC: 0.48985 (Simulation time: 0 hr 30 min 14 sec) 
select_counter is 1011
Heartbeat CPU 0 instructions: 64000000 cycles: 115648710 heartbeat IPC: 0.47174 cumulative IPC: 0.489502 (Simulation time: 0 hr 30 min 45 sec) 
select_counter is 507
Heartbeat CPU 0 instructions: 65000001 cycles: 117746162 heartbeat IPC: 0.476769 cumulative IPC: 0.489265 (Simulation time: 0 hr 31 min 12 sec) 
select_counter is 275
Heartbeat CPU 0 instructions: 66000000 cycles: 119642369 heartbeat IPC: 0.527368 cumulative IPC: 0.489897 (Simulation time: 0 hr 31 min 40 sec) 
select_counter is 776
Heartbeat CPU 0 instructions: 67000001 cycles: 121551810 heartbeat IPC: 0.523714 cumulative IPC: 0.490452 (Simulation time: 0 hr 32 min 8 sec) 
select_counter is 242
Heartbeat CPU 0 instructions: 68000000 cycles: 123491773 heartbeat IPC: 0.515473 cumulative IPC: 0.490863 (Simulation time: 0 hr 32 min 34 sec) 
select_counter is 691
Heartbeat CPU 0 instructions: 69000003 cycles: 125484945 heartbeat IPC: 0.501714 cumulative IPC: 0.491043 (Simulation time: 0 hr 33 min 3 sec) 
select_counter is 333
Heartbeat CPU 0 instructions: 70000000 cycles: 127237625 heartbeat IPC: 0.570553 cumulative IPC: 0.492186 (Simulation time: 0 hr 33 min 31 sec) 
select_counter is 964
Heartbeat CPU 0 instructions: 71000002 cycles: 129105366 heartbeat IPC: 0.535407 cumulative IPC: 0.492838 (Simulation time: 0 hr 34 min 1 sec) 
select_counter is 609
Heartbeat CPU 0 instructions: 72000000 cycles: 131149097 heartbeat IPC: 0.4893 cumulative IPC: 0.492781 (Simulation time: 0 hr 34 min 31 sec) 
select_counter is 837
Heartbeat CPU 0 instructions: 73000000 cycles: 133083594 heartbeat IPC: 0.51693 cumulative IPC: 0.493147 (Simulation time: 0 hr 35 min 0 sec) 
select_counter is 590
Heartbeat CPU 0 instructions: 74000000 cycles: 134935369 heartbeat IPC: 0.540022 cumulative IPC: 0.493816 (Simulation time: 0 hr 35 min 27 sec) 
select_counter is 297
Heartbeat CPU 0 instructions: 75000002 cycles: 136946127 heartbeat IPC: 0.497326 cumulative IPC: 0.49387 (Simulation time: 0 hr 35 min 49 sec) 
select_counter is 525
Heartbeat CPU 0 instructions: 76000000 cycles: 138770242 heartbeat IPC: 0.54821 cumulative IPC: 0.494613 (Simulation time: 0 hr 36 min 14 sec) 
select_counter is 235
Heartbeat CPU 0 instructions: 77000001 cycles: 140527649 heartbeat IPC: 0.569021 cumulative IPC: 0.49558 (Simulation time: 0 hr 36 min 37 sec) 
select_counter is 23
Heartbeat CPU 0 instructions: 78000000 cycles: 142450077 heartbeat IPC: 0.520175 cumulative IPC: 0.495925 (Simulation time: 0 hr 36 min 57 sec) 
select_counter is 535
Heartbeat CPU 0 instructions: 79000000 cycles: 144410556 heartbeat IPC: 0.510079 cumulative IPC: 0.496124 (Simulation time: 0 hr 37 min 19 sec) 
select_counter is 951
Heartbeat CPU 0 instructions: 80000000 cycles: 146227929 heartbeat IPC: 0.550245 cumulative IPC: 0.496823 (Simulation time: 0 hr 37 min 40 sec) 
select_counter is 667
Heartbeat CPU 0 instructions: 81000002 cycles: 148114724 heartbeat IPC: 0.53 cumulative IPC: 0.497261 (Simulation time: 0 hr 38 min 0 sec) 
select_counter is 378
Heartbeat CPU 0 instructions: 82000000 cycles: 150148654 heartbeat IPC: 0.491658 cumulative IPC: 0.497182 (Simulation time: 0 hr 38 min 20 sec) 
select_counter is 596
Heartbeat CPU 0 instructions: 83000003 cycles: 152010389 heartbeat IPC: 0.537135 cumulative IPC: 0.497689 (Simulation time: 0 hr 38 min 41 sec) 
select_counter is 256
Heartbeat CPU 0 instructions: 84000000 cycles: 153787806 heartbeat IPC: 0.562612 cumulative IPC: 0.498467 (Simulation time: 0 hr 39 min 2 sec) 
select_counter is 1005
Heartbeat CPU 0 instructions: 85000003 cycles: 155785125 heartbeat IPC: 0.500673 cumulative IPC: 0.498496 (Simulation time: 0 hr 39 min 21 sec) 
select_counter is 283
Heartbeat CPU 0 instructions: 86000002 cycles: 157649944 heartbeat IPC: 0.536245 cumulative IPC: 0.498958 (Simulation time: 0 hr 39 min 39 sec) 
select_counter is 843
Heartbeat CPU 0 instructions: 87000001 cycles: 159496095 heartbeat IPC: 0.541667 cumulative IPC: 0.49947 (Simulation time: 0 hr 39 min 58 sec) 
select_counter is 544
Heartbeat CPU 0 instructions: 88000000 cycles: 161335674 heartbeat IPC: 0.543602 cumulative IPC: 0.49999 (Simulation time: 0 hr 40 min 16 sec) 
select_counter is 179
Heartbeat CPU 0 instructions: 89000002 cycles: 163348867 heartbeat IPC: 0.496724 cumulative IPC: 0.499948 (Simulation time: 0 hr 40 min 31 sec) 
select_counter is 378
Heartbeat CPU 0 instructions: 90000001 cycles: 165158594 heartbeat IPC: 0.552569 cumulative IPC: 0.500544 (Simulation time: 0 hr 40 min 47 sec) 
select_counter is 11
Heartbeat CPU 0 instructions: 91000000 cycles: 167037382 heartbeat IPC: 0.532257 cumulative IPC: 0.500913 (Simulation time: 0 hr 41 min 4 sec) 
select_counter is 628
Heartbeat CPU 0 instructions: 92000000 cycles: 169084144 heartbeat IPC: 0.488577 cumulative IPC: 0.500758 (Simulation time: 0 hr 41 min 20 sec) 
select_counter is 752
Heartbeat CPU 0 instructions: 93000002 cycles: 170960983 heartbeat IPC: 0.532812 cumulative IPC: 0.501122 (Simulation time: 0 hr 41 min 37 sec) 
select_counter is 365
Heartbeat CPU 0 instructions: 94000003 cycles: 172812001 heartbeat IPC: 0.540244 cumulative IPC: 0.501554 (Simulation time: 0 hr 41 min 54 sec) 
select_counter is 967
Heartbeat CPU 0 instructions: 95000003 cycles: 174716952 heartbeat IPC: 0.524948 cumulative IPC: 0.501817 (Simulation time: 0 hr 42 min 10 sec) 
select_counter is 310
Heartbeat CPU 0 instructions: 96000000 cycles: 176647413 heartbeat IPC: 0.518009 cumulative IPC: 0.502 (Simulation time: 0 hr 42 min 25 sec) 
select_counter is 658
Heartbeat CPU 0 instructions: 97000000 cycles: 178545170 heartbeat IPC: 0.526938 cumulative IPC: 0.502273 (Simulation time: 0 hr 42 min 42 sec) 
select_counter is 254
Heartbeat CPU 0 instructions: 98000000 cycles: 180390579 heartbeat IPC: 0.541885 cumulative IPC: 0.50269 (Simulation time: 0 hr 42 min 56 sec) 
select_counter is 842
Heartbeat CPU 0 instructions: 99000003 cycles: 182407867 heartbeat IPC: 0.495717 cumulative IPC: 0.502611 (Simulation time: 0 hr 43 min 9 sec) 
select_counter is 1008
Heartbeat CPU 0 instructions: 100000000 cycles: 184263614 heartbeat IPC: 0.538865 cumulative IPC: 0.502987 (Simulation time: 0 hr 43 min 22 sec) 
select_counter is 621
Heartbeat CPU 0 instructions: 101000001 cycles: 186174233 heartbeat IPC: 0.523391 cumulative IPC: 0.503203 (Simulation time: 0 hr 43 min 33 sec) 
select_counter is 172
Heartbeat CPU 0 instructions: 102000003 cycles: 188144101 heartbeat IPC: 0.507649 cumulative IPC: 0.50325 (Simulation time: 0 hr 43 min 43 sec) 
select_counter is 377
Heartbeat CPU 0 instructions: 103000000 cycles: 189949485 heartbeat IPC: 0.553897 cumulative IPC: 0.503746 (Simulation time: 0 hr 43 min 53 sec) 
select_counter is 939
Heartbeat CPU 0 instructions: 104000000 cycles: 191829724 heartbeat IPC: 0.531847 cumulative IPC: 0.504029 (Simulation time: 0 hr 44 min 3 sec) 
select_counter is 544
Heartbeat CPU 0 instructions: 105000002 cycles: 193699281 heartbeat IPC: 0.534887 cumulative IPC: 0.504335 (Simulation time: 0 hr 44 min 12 sec) 
select_counter is 45
Heartbeat CPU 0 instructions: 106000003 cycles: 196285725 heartbeat IPC: 0.386632 cumulative IPC: 0.502741 (Simulation time: 0 hr 44 min 22 sec) 
select_counter is 369
Heartbeat CPU 0 instructions: 107000002 cycles: 198796683 heartbeat IPC: 0.398254 cumulative IPC: 0.501385 (Simulation time: 0 hr 44 min 30 sec) 
select_counter is 777
Heartbeat CPU 0 instructions: 108000000 cycles: 201157268 heartbeat IPC: 0.423623 cumulative IPC: 0.500448 (Simulation time: 0 hr 44 min 37 sec) 
select_counter is 936
Heartbeat CPU 0 instructions: 109000003 cycles: 203352939 heartbeat IPC: 0.455443 cumulative IPC: 0.499949 (Simulation time: 0 hr 44 min 44 sec) 
select_counter is 1020
Heartbeat CPU 0 instructions: 110000001 cycles: 205887465 heartbeat IPC: 0.39455 cumulative IPC: 0.498617 (Simulation time: 0 hr 44 min 51 sec) 
select_counter is 232
Finished CPU 0 instructions: 100000000 cycles: 200554925 cummulative IPC: 0.498617 (Simulation time: 0 hr 44 min 51 sec) 

ChampSim completed all CPUs

Region of Interest Statistics

CPU 0 cummulative IPC: 0.498617 instructions: 100000000 cycles: 200554925
LLC TOTAL     ACCESS:    3572657  HIT:     945885  MISS:    2626772
LLC LOAD      ACCESS:    2180502  HIT:     461280  MISS:    1719222
LLC RFO       ACCESS:     629126  HIT:     118553  MISS:     510573
LLC PREFETCH  ACCESS:          0  HIT:          0  MISS:          0
LLC WRITEBACK ACCESS:     763029  HIT:     366052  MISS:     396977
Ship samples: 
9, 41, 68, 101, 139, 173, 198, 224, 264, 299, 333, 362, 397, 422, 460, 480, 519, 548, 582, 620, 642, 683, 716, 747, 771, 809, 844, 866, 902, 934, 969, 996, 1034, 1058, 1101, 1120, 1158, 1187, 1223, 1250, 1292, 1312, 1346, 1387, 1418, 1454, 1473, 1505, 1540, 1581, 1606, 1642, 1677, 1706, 1733, 1768, 1803, 1833, 1870, 1902, 1930, 1963, 1994, 2017, 
Lime duel samples: 
14, 25, 44, 55, 78, 90, 103, 123, 137, 155, 171, 188, 199, 221, 228, 254, 268, 279, 302, 312, 330, 344, 365, 378, 394, 414, 416, 438, 459, 465, 492, 497, 520, 535, 544, 567, 580, 603, 617, 626, 651, 670, 672, 700, 717, 722, 741, 758, 773, 795, 810, 828, 837, 851, 878, 885, 905, 920, 931, 947, 961, 989, 999, 1015, 1031, 1045, 1060, 1075, 1094, 1114, 1128, 1141, 1165, 1175, 1196, 1209, 1220, 1241, 1259, 1264, 1284, 1300, 1318, 1330, 1349, 1373, 1376, 1398, 1420, 1434, 1441, 1461, 1474, 1492, 1515, 1526, 1545, 1560, 1577, 1592, 1604, 1628, 1634, 1651, 1669, 1685, 1700, 1721, 1732, 1744, 1773, 1783, 1800, 1820, 1835, 1843, 1869, 1883, 1891, 1912, 1933, 1949, 1966, 1980, 1993, 2007, 2029, 2044, 
Lime samples: 
14, 103, 199, 302, 394, 492, 580, 672, 773, 878, 961, 1060, 1165, 1259, 1349, 1441, 1545, 1634, 1732, 1835, 1933, 
Insertion Distribution: 
	LOAD 26408 0 0 0 0 0 49797 806896 
	RFO 0 0 0 0 0 0 6511 242624 
	PREF 0 0 0 0 0 0 0 0 
	WRITEBACK 0 0 0 0 0 0 0 252803 
Total Prefetch Downgrades: 0
