
*** ChampSim Multicore Out-of-Order Simulator ***

Warmup Instructions: 10000000
Simulation Instructions: 100000000
Configuration: 1
Number of CPUs: 1
LLC sets: 2048
LLC ways: 16
Off-chip DRAM Channels: 1 Width: 64-bit Data Rate: 1600 MT/s

CPU 0 runs /datasets/cs240c-wi22-a00-public/data/Assignment2-gz/zeusmp_600B.trace.gz
Heartbeat CPU 0 instructions: 1000000 cycles: 407507 heartbeat IPC: 2.45395 cumulative IPC: 2.45395 (Simulation time: 0 hr 0 min 22 sec) 
select_counter is 391
Heartbeat CPU 0 instructions: 2000001 cycles: 814374 heartbeat IPC: 2.45781 cumulative IPC: 2.45588 (Simulation time: 0 hr 0 min 39 sec) 
select_counter is 306
Heartbeat CPU 0 instructions: 3000003 cycles: 1221893 heartbeat IPC: 2.45388 cumulative IPC: 2.45521 (Simulation time: 0 hr 0 min 55 sec) 
select_counter is 195
Heartbeat CPU 0 instructions: 4000000 cycles: 1629601 heartbeat IPC: 2.45273 cumulative IPC: 2.45459 (Simulation time: 0 hr 1 min 11 sec) 
select_counter is 94
Heartbeat CPU 0 instructions: 5000001 cycles: 2037319 heartbeat IPC: 2.45268 cumulative IPC: 2.45421 (Simulation time: 0 hr 1 min 28 sec) 
select_counter is 1018
Heartbeat CPU 0 instructions: 6000000 cycles: 2444583 heartbeat IPC: 2.45541 cumulative IPC: 2.45441 (Simulation time: 0 hr 1 min 45 sec) 
select_counter is 942
Heartbeat CPU 0 instructions: 7000000 cycles: 2852187 heartbeat IPC: 2.45336 cumulative IPC: 2.45426 (Simulation time: 0 hr 2 min 1 sec) 
select_counter is 828
Heartbeat CPU 0 instructions: 8000000 cycles: 3259757 heartbeat IPC: 2.45357 cumulative IPC: 2.45417 (Simulation time: 0 hr 2 min 20 sec) 
select_counter is 734
Heartbeat CPU 0 instructions: 9000003 cycles: 3666904 heartbeat IPC: 2.45612 cumulative IPC: 2.45439 (Simulation time: 0 hr 2 min 38 sec) 
select_counter is 658
Heartbeat CPU 0 instructions: 10000001 cycles: 4074512 heartbeat IPC: 2.45333 cumulative IPC: 2.45428 (Simulation time: 0 hr 2 min 55 sec) 
select_counter is 561

Warmup complete CPU 0 instructions: 10000001 cycles: 4074512 (Simulation time: 0 hr 2 min 55 sec) 

Heartbeat CPU 0 instructions: 11000000 cycles: 4948071 heartbeat IPC: 1.14474 cumulative IPC: 1.14474 (Simulation time: 0 hr 3 min 16 sec) 
select_counter is 474
Heartbeat CPU 0 instructions: 12000000 cycles: 5815559 heartbeat IPC: 1.15275 cumulative IPC: 1.14873 (Simulation time: 0 hr 3 min 36 sec) 
select_counter is 388
Heartbeat CPU 0 instructions: 13000001 cycles: 6689268 heartbeat IPC: 1.14455 cumulative IPC: 1.14733 (Simulation time: 0 hr 3 min 57 sec) 
select_counter is 313
Heartbeat CPU 0 instructions: 14000001 cycles: 7565463 heartbeat IPC: 1.1413 cumulative IPC: 1.14582 (Simulation time: 0 hr 4 min 22 sec) 
select_counter is 225
Heartbeat CPU 0 instructions: 15000003 cycles: 8439898 heartbeat IPC: 1.1436 cumulative IPC: 1.14537 (Simulation time: 0 hr 4 min 43 sec) 
select_counter is 148
Heartbeat CPU 0 instructions: 16000000 cycles: 9375997 heartbeat IPC: 1.06826 cumulative IPC: 1.13176 (Simulation time: 0 hr 5 min 6 sec) 
select_counter is 58
Heartbeat CPU 0 instructions: 17000001 cycles: 10376651 heartbeat IPC: 0.999347 cumulative IPC: 1.11073 (Simulation time: 0 hr 5 min 29 sec) 
select_counter is 991
Heartbeat CPU 0 instructions: 18000003 cycles: 11361728 heartbeat IPC: 1.01515 cumulative IPC: 1.09781 (Simulation time: 0 hr 5 min 51 sec) 
select_counter is 894
Heartbeat CPU 0 instructions: 19000000 cycles: 12337291 heartbeat IPC: 1.02505 cumulative IPC: 1.08922 (Simulation time: 0 hr 6 min 15 sec) 
select_counter is 807
Heartbeat CPU 0 instructions: 20000000 cycles: 13316049 heartbeat IPC: 1.0217 cumulative IPC: 1.08207 (Simulation time: 0 hr 6 min 43 sec) 
select_counter is 712
Heartbeat CPU 0 instructions: 21000002 cycles: 14311574 heartbeat IPC: 1.0045 cumulative IPC: 1.07453 (Simulation time: 0 hr 7 min 6 sec) 
select_counter is 609
Heartbeat CPU 0 instructions: 22000000 cycles: 15295932 heartbeat IPC: 1.01589 cumulative IPC: 1.06938 (Simulation time: 0 hr 7 min 27 sec) 
select_counter is 519
Heartbeat CPU 0 instructions: 23000000 cycles: 16262788 heartbeat IPC: 1.03428 cumulative IPC: 1.0666 (Simulation time: 0 hr 7 min 52 sec) 
select_counter is 439
Heartbeat CPU 0 instructions: 24000000 cycles: 17239675 heartbeat IPC: 1.02366 cumulative IPC: 1.06341 (Simulation time: 0 hr 8 min 17 sec) 
select_counter is 357
Heartbeat CPU 0 instructions: 25000000 cycles: 18201162 heartbeat IPC: 1.04006 cumulative IPC: 1.06182 (Simulation time: 0 hr 8 min 42 sec) 
select_counter is 269
Heartbeat CPU 0 instructions: 26000000 cycles: 19174285 heartbeat IPC: 1.02762 cumulative IPC: 1.05962 (Simulation time: 0 hr 9 min 6 sec) 
select_counter is 189
Heartbeat CPU 0 instructions: 27000003 cycles: 20149926 heartbeat IPC: 1.02497 cumulative IPC: 1.05752 (Simulation time: 0 hr 9 min 26 sec) 
select_counter is 106
Heartbeat CPU 0 instructions: 28000000 cycles: 21141668 heartbeat IPC: 1.00832 cumulative IPC: 1.05466 (Simulation time: 0 hr 9 min 50 sec) 
select_counter is 20
Heartbeat CPU 0 instructions: 29000000 cycles: 22114201 heartbeat IPC: 1.02824 cumulative IPC: 1.05323 (Simulation time: 0 hr 10 min 14 sec) 
select_counter is 968
Heartbeat CPU 0 instructions: 30000003 cycles: 23109159 heartbeat IPC: 1.00507 cumulative IPC: 1.05072 (Simulation time: 0 hr 10 min 35 sec) 
select_counter is 886
Heartbeat CPU 0 instructions: 31000002 cycles: 24107647 heartbeat IPC: 1.00151 cumulative IPC: 1.04826 (Simulation time: 0 hr 10 min 56 sec) 
select_counter is 800
Heartbeat CPU 0 instructions: 32000000 cycles: 25085388 heartbeat IPC: 1.02276 cumulative IPC: 1.04708 (Simulation time: 0 hr 11 min 17 sec) 
select_counter is 713
Heartbeat CPU 0 instructions: 33000001 cycles: 26076758 heartbeat IPC: 1.00871 cumulative IPC: 1.04535 (Simulation time: 0 hr 11 min 38 sec) 
select_counter is 629
Heartbeat CPU 0 instructions: 34000000 cycles: 27056559 heartbeat IPC: 1.02061 cumulative IPC: 1.04429 (Simulation time: 0 hr 11 min 59 sec) 
select_counter is 551
Heartbeat CPU 0 instructions: 35000003 cycles: 28029132 heartbeat IPC: 1.0282 cumulative IPC: 1.04364 (Simulation time: 0 hr 12 min 21 sec) 
select_counter is 468
Heartbeat CPU 0 instructions: 36000000 cycles: 28996150 heartbeat IPC: 1.0341 cumulative IPC: 1.04327 (Simulation time: 0 hr 12 min 44 sec) 
select_counter is 377
Heartbeat CPU 0 instructions: 37000001 cycles: 29976059 heartbeat IPC: 1.0205 cumulative IPC: 1.04241 (Simulation time: 0 hr 13 min 6 sec) 
select_counter is 294
Heartbeat CPU 0 instructions: 38000000 cycles: 30973376 heartbeat IPC: 1.00269 cumulative IPC: 1.04094 (Simulation time: 0 hr 13 min 29 sec) 
select_counter is 216
Heartbeat CPU 0 instructions: 39000002 cycles: 31952842 heartbeat IPC: 1.02097 cumulative IPC: 1.04023 (Simulation time: 0 hr 13 min 54 sec) 
select_counter is 133
Heartbeat CPU 0 instructions: 40000000 cycles: 32935554 heartbeat IPC: 1.01759 cumulative IPC: 1.03946 (Simulation time: 0 hr 14 min 18 sec) 
select_counter is 54
Heartbeat CPU 0 instructions: 41000002 cycles: 33917131 heartbeat IPC: 1.01877 cumulative IPC: 1.03878 (Simulation time: 0 hr 14 min 40 sec) 
select_counter is 991
Heartbeat CPU 0 instructions: 42000000 cycles: 34911648 heartbeat IPC: 1.00551 cumulative IPC: 1.03771 (Simulation time: 0 hr 15 min 3 sec) 
select_counter is 907
Heartbeat CPU 0 instructions: 43000002 cycles: 35896086 heartbeat IPC: 1.01581 cumulative IPC: 1.03703 (Simulation time: 0 hr 15 min 26 sec) 
select_counter is 834
Heartbeat CPU 0 instructions: 44000000 cycles: 36874595 heartbeat IPC: 1.02196 cumulative IPC: 1.03658 (Simulation time: 0 hr 15 min 47 sec) 
select_counter is 753
Heartbeat CPU 0 instructions: 45000000 cycles: 37856512 heartbeat IPC: 1.01842 cumulative IPC: 1.03605 (Simulation time: 0 hr 16 min 9 sec) 
select_counter is 666
Heartbeat CPU 0 instructions: 46000000 cycles: 38832765 heartbeat IPC: 1.02432 cumulative IPC: 1.03573 (Simulation time: 0 hr 16 min 32 sec) 
select_counter is 579
Heartbeat CPU 0 instructions: 47000003 cycles: 39821706 heartbeat IPC: 1.01119 cumulative IPC: 1.03505 (Simulation time: 0 hr 16 min 53 sec) 
select_counter is 498
Heartbeat CPU 0 instructions: 48000000 cycles: 40797140 heartbeat IPC: 1.02518 cumulative IPC: 1.03478 (Simulation time: 0 hr 17 min 14 sec) 
select_counter is 418
Heartbeat CPU 0 instructions: 49000000 cycles: 41768453 heartbeat IPC: 1.02953 cumulative IPC: 1.03465 (Simulation time: 0 hr 17 min 34 sec) 
select_counter is 339
Heartbeat CPU 0 instructions: 50000001 cycles: 42741994 heartbeat IPC: 1.02718 cumulative IPC: 1.03446 (Simulation time: 0 hr 17 min 55 sec) 
select_counter is 256
Heartbeat CPU 0 instructions: 51000001 cycles: 43729735 heartbeat IPC: 1.01241 cumulative IPC: 1.03391 (Simulation time: 0 hr 18 min 17 sec) 
select_counter is 174
Heartbeat CPU 0 instructions: 52000000 cycles: 44695640 heartbeat IPC: 1.0353 cumulative IPC: 1.03394 (Simulation time: 0 hr 18 min 38 sec) 
select_counter is 92
Heartbeat CPU 0 instructions: 53000000 cycles: 45684985 heartbeat IPC: 1.01077 cumulative IPC: 1.03339 (Simulation time: 0 hr 18 min 58 sec) 
select_counter is 11
Heartbeat CPU 0 instructions: 54000000 cycles: 46680110 heartbeat IPC: 1.0049 cumulative IPC: 1.03273 (Simulation time: 0 hr 19 min 18 sec) 
select_counter is 947
Heartbeat CPU 0 instructions: 55000001 cycles: 47682272 heartbeat IPC: 0.997844 cumulative IPC: 1.03193 (Simulation time: 0 hr 19 min 38 sec) 
select_counter is 862
Heartbeat CPU 0 instructions: 56000000 cycles: 48661960 heartbeat IPC: 1.02073 cumulative IPC: 1.03168 (Simulation time: 0 hr 20 min 0 sec) 
select_counter is 777
Heartbeat CPU 0 instructions: 57000003 cycles: 49657911 heartbeat IPC: 1.00407 cumulative IPC: 1.03108 (Simulation time: 0 hr 20 min 22 sec) 
select_counter is 704
Heartbeat CPU 0 instructions: 58000001 cycles: 50629911 heartbeat IPC: 1.0288 cumulative IPC: 1.03103 (Simulation time: 0 hr 20 min 44 sec) 
select_counter is 618
Heartbeat CPU 0 instructions: 59000000 cycles: 51616490 heartbeat IPC: 1.0136 cumulative IPC: 1.03067 (Simulation time: 0 hr 21 min 6 sec) 
select_counter is 533
Heartbeat CPU 0 instructions: 60000000 cycles: 52598429 heartbeat IPC: 1.01839 cumulative IPC: 1.03042 (Simulation time: 0 hr 21 min 27 sec) 
select_counter is 446
Heartbeat CPU 0 instructions: 61000003 cycles: 53570979 heartbeat IPC: 1.02823 cumulative IPC: 1.03038 (Simulation time: 0 hr 21 min 48 sec) 
select_counter is 370
Heartbeat CPU 0 instructions: 62000001 cycles: 54547101 heartbeat IPC: 1.02446 cumulative IPC: 1.03026 (Simulation time: 0 hr 22 min 11 sec) 
select_counter is 283
Heartbeat CPU 0 instructions: 63000000 cycles: 55518123 heartbeat IPC: 1.02984 cumulative IPC: 1.03025 (Simulation time: 0 hr 22 min 32 sec) 
select_counter is 201
Heartbeat CPU 0 instructions: 64000000 cycles: 56495044 heartbeat IPC: 1.02362 cumulative IPC: 1.03013 (Simulation time: 0 hr 22 min 53 sec) 
select_counter is 120
Heartbeat CPU 0 instructions: 65000001 cycles: 57492545 heartbeat IPC: 1.00251 cumulative IPC: 1.02961 (Simulation time: 0 hr 23 min 14 sec) 
select_counter is 32
Heartbeat CPU 0 instructions: 66000000 cycles: 58487312 heartbeat IPC: 1.00526 cumulative IPC: 1.02917 (Simulation time: 0 hr 23 min 35 sec) 
select_counter is 972
Heartbeat CPU 0 instructions: 67000001 cycles: 59489310 heartbeat IPC: 0.998007 cumulative IPC: 1.02861 (Simulation time: 0 hr 23 min 58 sec) 
select_counter is 891
Heartbeat CPU 0 instructions: 68000000 cycles: 60477588 heartbeat IPC: 1.01186 cumulative IPC: 1.02831 (Simulation time: 0 hr 24 min 20 sec) 
select_counter is 803
Heartbeat CPU 0 instructions: 69000002 cycles: 61473550 heartbeat IPC: 1.00406 cumulative IPC: 1.02789 (Simulation time: 0 hr 24 min 41 sec) 
select_counter is 727
Heartbeat CPU 0 instructions: 70000000 cycles: 62467701 heartbeat IPC: 1.00588 cumulative IPC: 1.02752 (Simulation time: 0 hr 25 min 1 sec) 
select_counter is 650
Heartbeat CPU 0 instructions: 71000001 cycles: 63462636 heartbeat IPC: 1.00509 cumulative IPC: 1.02714 (Simulation time: 0 hr 25 min 21 sec) 
select_counter is 564
Heartbeat CPU 0 instructions: 72000000 cycles: 64444841 heartbeat IPC: 1.01812 cumulative IPC: 1.02699 (Simulation time: 0 hr 25 min 43 sec) 
select_counter is 485
Heartbeat CPU 0 instructions: 73000003 cycles: 65414867 heartbeat IPC: 1.0309 cumulative IPC: 1.02706 (Simulation time: 0 hr 26 min 6 sec) 
select_counter is 404
Heartbeat CPU 0 instructions: 74000002 cycles: 66394133 heartbeat IPC: 1.02117 cumulative IPC: 1.02696 (Simulation time: 0 hr 26 min 28 sec) 
select_counter is 317
Heartbeat CPU 0 instructions: 75000003 cycles: 67382068 heartbeat IPC: 1.01221 cumulative IPC: 1.02673 (Simulation time: 0 hr 26 min 49 sec) 
select_counter is 239
Heartbeat CPU 0 instructions: 76000000 cycles: 68378147 heartbeat IPC: 1.00393 cumulative IPC: 1.02638 (Simulation time: 0 hr 27 min 12 sec) 
select_counter is 157
Heartbeat CPU 0 instructions: 77000000 cycles: 69352550 heartbeat IPC: 1.02627 cumulative IPC: 1.02638 (Simulation time: 0 hr 27 min 37 sec) 
select_counter is 77
Heartbeat CPU 0 instructions: 78000003 cycles: 70333490 heartbeat IPC: 1.01943 cumulative IPC: 1.02628 (Simulation time: 0 hr 27 min 58 sec) 
select_counter is 1020
Heartbeat CPU 0 instructions: 79000000 cycles: 71328920 heartbeat IPC: 1.00459 cumulative IPC: 1.02596 (Simulation time: 0 hr 28 min 19 sec) 
select_counter is 939
Heartbeat CPU 0 instructions: 80000000 cycles: 72327314 heartbeat IPC: 1.00161 cumulative IPC: 1.0256 (Simulation time: 0 hr 28 min 41 sec) 
select_counter is 850
Heartbeat CPU 0 instructions: 81000002 cycles: 73317830 heartbeat IPC: 1.00958 cumulative IPC: 1.02537 (Simulation time: 0 hr 29 min 2 sec) 
select_counter is 770
Heartbeat CPU 0 instructions: 82000002 cycles: 74296175 heartbeat IPC: 1.02213 cumulative IPC: 1.02532 (Simulation time: 0 hr 29 min 23 sec) 
select_counter is 685
Heartbeat CPU 0 instructions: 83000001 cycles: 75276735 heartbeat IPC: 1.01982 cumulative IPC: 1.02525 (Simulation time: 0 hr 29 min 43 sec) 
select_counter is 605
Heartbeat CPU 0 instructions: 84000000 cycles: 76266625 heartbeat IPC: 1.01021 cumulative IPC: 1.02504 (Simulation time: 0 hr 30 min 6 sec) 
select_counter is 520
Heartbeat CPU 0 instructions: 85000000 cycles: 77253560 heartbeat IPC: 1.01324 cumulative IPC: 1.02488 (Simulation time: 0 hr 30 min 26 sec) 
select_counter is 443
Heartbeat CPU 0 instructions: 86000002 cycles: 78218616 heartbeat IPC: 1.03621 cumulative IPC: 1.02503 (Simulation time: 0 hr 30 min 46 sec) 
select_counter is 361
Heartbeat CPU 0 instructions: 87000000 cycles: 79198748 heartbeat IPC: 1.02027 cumulative IPC: 1.02497 (Simulation time: 0 hr 31 min 7 sec) 
select_counter is 275
Heartbeat CPU 0 instructions: 88000000 cycles: 80194666 heartbeat IPC: 1.0041 cumulative IPC: 1.0247 (Simulation time: 0 hr 31 min 28 sec) 
select_counter is 192
Heartbeat CPU 0 instructions: 89000002 cycles: 81170057 heartbeat IPC: 1.02523 cumulative IPC: 1.0247 (Simulation time: 0 hr 31 min 47 sec) 
select_counter is 116
Heartbeat CPU 0 instructions: 90000002 cycles: 82144735 heartbeat IPC: 1.02598 cumulative IPC: 1.02472 (Simulation time: 0 hr 32 min 8 sec) 
select_counter is 34
Heartbeat CPU 0 instructions: 91000001 cycles: 83126419 heartbeat IPC: 1.01866 cumulative IPC: 1.02464 (Simulation time: 0 hr 32 min 28 sec) 
select_counter is 974
Heartbeat CPU 0 instructions: 92000000 cycles: 84125085 heartbeat IPC: 1.00133 cumulative IPC: 1.02435 (Simulation time: 0 hr 32 min 48 sec) 
select_counter is 889
Heartbeat CPU 0 instructions: 93000000 cycles: 85097441 heartbeat IPC: 1.02843 cumulative IPC: 1.0244 (Simulation time: 0 hr 33 min 9 sec) 
select_counter is 801
Heartbeat CPU 0 instructions: 94000002 cycles: 86065029 heartbeat IPC: 1.0335 cumulative IPC: 1.02451 (Simulation time: 0 hr 33 min 29 sec) 
select_counter is 727
Heartbeat CPU 0 instructions: 95000001 cycles: 87039393 heartbeat IPC: 1.02631 cumulative IPC: 1.02453 (Simulation time: 0 hr 33 min 49 sec) 
select_counter is 624
Heartbeat CPU 0 instructions: 96000000 cycles: 88009557 heartbeat IPC: 1.03075 cumulative IPC: 1.0246 (Simulation time: 0 hr 34 min 10 sec) 
select_counter is 504
Heartbeat CPU 0 instructions: 97000003 cycles: 88980814 heartbeat IPC: 1.0296 cumulative IPC: 1.02466 (Simulation time: 0 hr 34 min 28 sec) 
select_counter is 388
Heartbeat CPU 0 instructions: 98000002 cycles: 89950787 heartbeat IPC: 1.03096 cumulative IPC: 1.02473 (Simulation time: 0 hr 34 min 48 sec) 
select_counter is 258
Heartbeat CPU 0 instructions: 99000000 cycles: 90944155 heartbeat IPC: 1.00667 cumulative IPC: 1.02452 (Simulation time: 0 hr 35 min 7 sec) 
select_counter is 140
Heartbeat CPU 0 instructions: 100000000 cycles: 91922391 heartbeat IPC: 1.02225 cumulative IPC: 1.0245 (Simulation time: 0 hr 35 min 27 sec) 
select_counter is 26
Heartbeat CPU 0 instructions: 101000002 cycles: 92881457 heartbeat IPC: 1.04268 cumulative IPC: 1.02469 (Simulation time: 0 hr 35 min 46 sec) 
select_counter is 919
Heartbeat CPU 0 instructions: 102000002 cycles: 93867627 heartbeat IPC: 1.01402 cumulative IPC: 1.02458 (Simulation time: 0 hr 36 min 5 sec) 
select_counter is 795
Heartbeat CPU 0 instructions: 103000001 cycles: 94847698 heartbeat IPC: 1.02033 cumulative IPC: 1.02453 (Simulation time: 0 hr 36 min 23 sec) 
select_counter is 673
Heartbeat CPU 0 instructions: 104000000 cycles: 95830500 heartbeat IPC: 1.0175 cumulative IPC: 1.02446 (Simulation time: 0 hr 36 min 40 sec) 
select_counter is 559
Heartbeat CPU 0 instructions: 105000001 cycles: 96830585 heartbeat IPC: 0.999916 cumulative IPC: 1.02419 (Simulation time: 0 hr 36 min 55 sec) 
select_counter is 439
Heartbeat CPU 0 instructions: 106000000 cycles: 97812019 heartbeat IPC: 1.01892 cumulative IPC: 1.02414 (Simulation time: 0 hr 37 min 10 sec) 
select_counter is 316
Heartbeat CPU 0 instructions: 107000000 cycles: 98796582 heartbeat IPC: 1.01568 cumulative IPC: 1.02405 (Simulation time: 0 hr 37 min 25 sec) 
select_counter is 202
Heartbeat CPU 0 instructions: 108000000 cycles: 99773280 heartbeat IPC: 1.02386 cumulative IPC: 1.02405 (Simulation time: 0 hr 37 min 40 sec) 
select_counter is 72
Heartbeat CPU 0 instructions: 109000000 cycles: 100756487 heartbeat IPC: 1.01708 cumulative IPC: 1.02398 (Simulation time: 0 hr 37 min 56 sec) 
select_counter is 969
Heartbeat CPU 0 instructions: 110000002 cycles: 101739176 heartbeat IPC: 1.01762 cumulative IPC: 1.02391 (Simulation time: 0 hr 38 min 11 sec) 
select_counter is 856
Finished CPU 0 instructions: 100000001 cycles: 97664664 cummulative IPC: 1.02391 (Simulation time: 0 hr 38 min 11 sec) 

ChampSim completed all CPUs

Region of Interest Statistics

CPU 0 cummulative IPC: 1.02391 instructions: 100000001 cycles: 97664664
LLC TOTAL     ACCESS:     381989  HIT:      33589  MISS:     348400
LLC LOAD      ACCESS:     315489  HIT:       3068  MISS:     312421
LLC RFO       ACCESS:       3447  HIT:          1  MISS:       3446
LLC PREFETCH  ACCESS:          0  HIT:          0  MISS:          0
LLC WRITEBACK ACCESS:      63053  HIT:      30520  MISS:      32533
Ship samples: 
4, 37, 77, 99, 139, 166, 192, 228, 261, 301, 325, 356, 388, 429, 459, 488, 513, 552, 586, 619, 643, 683, 716, 743, 768, 806, 837, 864, 899, 931, 966, 1000, 1026, 1066, 1094, 1134, 1165, 1187, 1229, 1248, 1287, 1316, 1354, 1387, 1410, 1450, 1478, 1504, 1547, 1578, 1607, 1635, 1667, 1700, 1734, 1766, 1794, 1829, 1865, 1899, 1923, 1966, 1992, 2018, 
Lime duel samples: 
14, 29, 39, 51, 71, 90, 100, 120, 141, 152, 170, 180, 199, 212, 225, 241, 259, 277, 296, 318, 329, 338, 357, 370, 389, 402, 417, 434, 450, 474, 492, 497, 517, 538, 551, 565, 585, 599, 620, 625, 654, 666, 684, 702, 717, 732, 750, 756, 777, 784, 805, 823, 834, 857, 878, 894, 900, 916, 939, 951, 961, 990, 998, 1020, 1027, 1043, 1056, 1078, 1095, 1117, 1125, 1139, 1156, 1179, 1196, 1200, 1226, 1234, 1258, 1277, 1290, 1301, 1317, 1334, 1347, 1373, 1382, 1398, 1416, 1436, 1452, 1469, 1485, 1491, 1517, 1526, 1544, 1566, 1570, 1585, 1605, 1619, 1636, 1662, 1664, 1692, 1706, 1713, 1732, 1757, 1761, 1789, 1804, 1815, 1833, 1853, 1858, 1880, 1896, 1905, 1926, 1945, 1961, 1974, 1985, 2005, 2024, 2036, 
Lime samples: 
14, 100, 199, 296, 389, 492, 585, 684, 777, 878, 961, 1056, 1156, 1258, 1347, 1452, 1544, 1636, 1732, 1833, 1926, 
Insertion Distribution: 
	LOAD 4553 0 0 0 0 0 17850 146391 
	RFO 0 0 0 0 0 0 3101 2741 
	PREF 0 0 0 0 0 0 0 0 
	WRITEBACK 0 0 0 0 0 0 0 24404 
Total Prefetch Downgrades: 0
