
*** ChampSim Multicore Out-of-Order Simulator ***

Warmup Instructions: 10000000
Simulation Instructions: 100000000
Configuration: 1
Number of CPUs: 1
LLC sets: 2048
LLC ways: 16
Off-chip DRAM Channels: 1 Width: 64-bit Data Rate: 1600 MT/s

CPU 0 runs /datasets/cs240c-wi22-a00-public/data/Assignment2-gz/sphinx3_2520B.trace.gz
Heartbeat CPU 0 instructions: 1000003 cycles: 338265 heartbeat IPC: 2.95627 cumulative IPC: 2.95627 (Simulation time: 0 hr 0 min 17 sec) 
select_counter is 97
Heartbeat CPU 0 instructions: 2000000 cycles: 735301 heartbeat IPC: 2.51866 cumulative IPC: 2.71997 (Simulation time: 0 hr 0 min 35 sec) 
select_counter is 686
Heartbeat CPU 0 instructions: 3000003 cycles: 1181536 heartbeat IPC: 2.24098 cumulative IPC: 2.53907 (Simulation time: 0 hr 0 min 52 sec) 
select_counter is 324
Heartbeat CPU 0 instructions: 4000000 cycles: 1520009 heartbeat IPC: 2.95444 cumulative IPC: 2.63156 (Simulation time: 0 hr 1 min 9 sec) 
select_counter is 879
Heartbeat CPU 0 instructions: 5000001 cycles: 1897245 heartbeat IPC: 2.65086 cumulative IPC: 2.6354 (Simulation time: 0 hr 1 min 27 sec) 
select_counter is 246
Heartbeat CPU 0 instructions: 6000001 cycles: 2361417 heartbeat IPC: 2.15437 cumulative IPC: 2.54085 (Simulation time: 0 hr 1 min 44 sec) 
select_counter is 735
Heartbeat CPU 0 instructions: 7000002 cycles: 2699770 heartbeat IPC: 2.9555 cumulative IPC: 2.59281 (Simulation time: 0 hr 2 min 1 sec) 
select_counter is 488
Heartbeat CPU 0 instructions: 8000000 cycles: 3048286 heartbeat IPC: 2.8693 cumulative IPC: 2.62443 (Simulation time: 0 hr 2 min 19 sec) 
select_counter is 298
Heartbeat CPU 0 instructions: 9000000 cycles: 3500648 heartbeat IPC: 2.21062 cumulative IPC: 2.57095 (Simulation time: 0 hr 2 min 36 sec) 
select_counter is 70
Heartbeat CPU 0 instructions: 10000001 cycles: 3850262 heartbeat IPC: 2.8603 cumulative IPC: 2.59723 (Simulation time: 0 hr 2 min 53 sec) 
select_counter is 932

Warmup complete CPU 0 instructions: 10000001 cycles: 3850262 (Simulation time: 0 hr 2 min 53 sec) 

Heartbeat CPU 0 instructions: 11000001 cycles: 4922909 heartbeat IPC: 0.932273 cumulative IPC: 0.932273 (Simulation time: 0 hr 3 min 16 sec) 
select_counter is 821
Heartbeat CPU 0 instructions: 12000000 cycles: 6108269 heartbeat IPC: 0.843625 cumulative IPC: 0.885736 (Simulation time: 0 hr 3 min 37 sec) 
select_counter is 629
Heartbeat CPU 0 instructions: 13000002 cycles: 7457166 heartbeat IPC: 0.741348 cumulative IPC: 0.831739 (Simulation time: 0 hr 3 min 58 sec) 
select_counter is 530
Heartbeat CPU 0 instructions: 14000002 cycles: 8482438 heartbeat IPC: 0.975351 cumulative IPC: 0.863525 (Simulation time: 0 hr 4 min 19 sec) 
select_counter is 406
Heartbeat CPU 0 instructions: 15000003 cycles: 9640115 heartbeat IPC: 0.8638 cumulative IPC: 0.86358 (Simulation time: 0 hr 4 min 39 sec) 
select_counter is 203
Heartbeat CPU 0 instructions: 16000000 cycles: 10837964 heartbeat IPC: 0.834827 cumulative IPC: 0.858651 (Simulation time: 0 hr 5 min 0 sec) 
select_counter is 106
Heartbeat CPU 0 instructions: 17000000 cycles: 11792049 heartbeat IPC: 1.04812 cumulative IPC: 0.881414 (Simulation time: 0 hr 5 min 22 sec) 
select_counter is 1015
Heartbeat CPU 0 instructions: 18000002 cycles: 12896065 heartbeat IPC: 0.905786 cumulative IPC: 0.884388 (Simulation time: 0 hr 5 min 42 sec) 
select_counter is 834
Heartbeat CPU 0 instructions: 19000002 cycles: 14036545 heartbeat IPC: 0.876824 cumulative IPC: 0.883541 (Simulation time: 0 hr 6 min 2 sec) 
select_counter is 765
Heartbeat CPU 0 instructions: 20000000 cycles: 15040242 heartbeat IPC: 0.996315 cumulative IPC: 0.893657 (Simulation time: 0 hr 6 min 22 sec) 
select_counter is 702
Heartbeat CPU 0 instructions: 21000001 cycles: 16333204 heartbeat IPC: 0.773419 cumulative IPC: 0.881203 (Simulation time: 0 hr 6 min 42 sec) 
select_counter is 627
Heartbeat CPU 0 instructions: 22000002 cycles: 17467255 heartbeat IPC: 0.881795 cumulative IPC: 0.881252 (Simulation time: 0 hr 7 min 2 sec) 
select_counter is 505
Heartbeat CPU 0 instructions: 23000001 cycles: 18660921 heartbeat IPC: 0.837754 cumulative IPC: 0.877746 (Simulation time: 0 hr 7 min 23 sec) 
select_counter is 403
Heartbeat CPU 0 instructions: 24000000 cycles: 19590544 heartbeat IPC: 1.0757 cumulative IPC: 0.889438 (Simulation time: 0 hr 7 min 43 sec) 
select_counter is 385
Heartbeat CPU 0 instructions: 25000003 cycles: 20651413 heartbeat IPC: 0.942626 cumulative IPC: 0.892796 (Simulation time: 0 hr 8 min 3 sec) 
select_counter is 234
Heartbeat CPU 0 instructions: 26000000 cycles: 21813690 heartbeat IPC: 0.860377 cumulative IPC: 0.890699 (Simulation time: 0 hr 8 min 24 sec) 
select_counter is 182
Heartbeat CPU 0 instructions: 27000000 cycles: 22708432 heartbeat IPC: 1.11764 cumulative IPC: 0.901466 (Simulation time: 0 hr 8 min 45 sec) 
select_counter is 199
Heartbeat CPU 0 instructions: 28000000 cycles: 23750019 heartbeat IPC: 0.960073 cumulative IPC: 0.904534 (Simulation time: 0 hr 9 min 4 sec) 
select_counter is 59
Heartbeat CPU 0 instructions: 29000003 cycles: 24920948 heartbeat IPC: 0.854025 cumulative IPC: 0.901727 (Simulation time: 0 hr 9 min 26 sec) 
select_counter is 20
Heartbeat CPU 0 instructions: 30000003 cycles: 25796353 heartbeat IPC: 1.14233 cumulative IPC: 0.911324 (Simulation time: 0 hr 9 min 46 sec) 
select_counter is 60
Heartbeat CPU 0 instructions: 31000001 cycles: 26800487 heartbeat IPC: 0.995881 cumulative IPC: 0.915024 (Simulation time: 0 hr 10 min 6 sec) 
select_counter is 986
Heartbeat CPU 0 instructions: 32000000 cycles: 27957334 heartbeat IPC: 0.864418 cumulative IPC: 0.912595 (Simulation time: 0 hr 10 min 26 sec) 
select_counter is 954
Heartbeat CPU 0 instructions: 33000000 cycles: 28886489 heartbeat IPC: 1.07625 cumulative IPC: 0.918669 (Simulation time: 0 hr 10 min 47 sec) 
select_counter is 976
Heartbeat CPU 0 instructions: 34000000 cycles: 29926824 heartbeat IPC: 0.961229 cumulative IPC: 0.920367 (Simulation time: 0 hr 11 min 7 sec) 
select_counter is 871
Heartbeat CPU 0 instructions: 35000002 cycles: 31059150 heartbeat IPC: 0.88314 cumulative IPC: 0.918817 (Simulation time: 0 hr 11 min 28 sec) 
select_counter is 849
Heartbeat CPU 0 instructions: 36000000 cycles: 31949446 heartbeat IPC: 1.12322 cumulative IPC: 0.925294 (Simulation time: 0 hr 11 min 49 sec) 
select_counter is 856
Heartbeat CPU 0 instructions: 37000000 cycles: 32992607 heartbeat IPC: 0.958625 cumulative IPC: 0.926487 (Simulation time: 0 hr 12 min 8 sec) 
select_counter is 764
Heartbeat CPU 0 instructions: 38000002 cycles: 34115578 heartbeat IPC: 0.890497 cumulative IPC: 0.925151 (Simulation time: 0 hr 12 min 30 sec) 
select_counter is 750
Heartbeat CPU 0 instructions: 39000000 cycles: 35049793 heartbeat IPC: 1.07042 cumulative IPC: 0.929501 (Simulation time: 0 hr 12 min 51 sec) 
select_counter is 753
Heartbeat CPU 0 instructions: 40000000 cycles: 36099147 heartbeat IPC: 0.952967 cumulative IPC: 0.930265 (Simulation time: 0 hr 13 min 12 sec) 
select_counter is 658
Heartbeat CPU 0 instructions: 41000001 cycles: 37230934 heartbeat IPC: 0.883559 cumulative IPC: 0.928681 (Simulation time: 0 hr 13 min 33 sec) 
select_counter is 634
Heartbeat CPU 0 instructions: 42000002 cycles: 38196976 heartbeat IPC: 1.03515 cumulative IPC: 0.931676 (Simulation time: 0 hr 13 min 53 sec) 
select_counter is 598
Heartbeat CPU 0 instructions: 43000003 cycles: 39215705 heartbeat IPC: 0.981616 cumulative IPC: 0.933114 (Simulation time: 0 hr 14 min 14 sec) 
select_counter is 526
Heartbeat CPU 0 instructions: 44000000 cycles: 40370770 heartbeat IPC: 0.86575 cumulative IPC: 0.930984 (Simulation time: 0 hr 14 min 35 sec) 
select_counter is 486
Heartbeat CPU 0 instructions: 45000001 cycles: 41303811 heartbeat IPC: 1.07177 cumulative IPC: 0.934491 (Simulation time: 0 hr 14 min 55 sec) 
select_counter is 461
Heartbeat CPU 0 instructions: 46000001 cycles: 42332035 heartbeat IPC: 0.972551 cumulative IPC: 0.935508 (Simulation time: 0 hr 15 min 16 sec) 
select_counter is 370
Heartbeat CPU 0 instructions: 47000001 cycles: 43469449 heartbeat IPC: 0.879187 cumulative IPC: 0.933891 (Simulation time: 0 hr 15 min 37 sec) 
select_counter is 334
Heartbeat CPU 0 instructions: 48000000 cycles: 44415673 heartbeat IPC: 1.05683 cumulative IPC: 0.936759 (Simulation time: 0 hr 15 min 57 sec) 
select_counter is 283
Heartbeat CPU 0 instructions: 49000001 cycles: 45404874 heartbeat IPC: 1.01092 cumulative IPC: 0.938524 (Simulation time: 0 hr 16 min 17 sec) 
select_counter is 192
Heartbeat CPU 0 instructions: 50000003 cycles: 46518524 heartbeat IPC: 0.89795 cumulative IPC: 0.937465 (Simulation time: 0 hr 16 min 38 sec) 
select_counter is 162
Heartbeat CPU 0 instructions: 51000001 cycles: 47467165 heartbeat IPC: 1.05414 cumulative IPC: 0.940003 (Simulation time: 0 hr 16 min 57 sec) 
select_counter is 118
Heartbeat CPU 0 instructions: 52000000 cycles: 48440677 heartbeat IPC: 1.02721 cumulative IPC: 0.941906 (Simulation time: 0 hr 17 min 18 sec) 
select_counter is 36
Heartbeat CPU 0 instructions: 53000001 cycles: 49546426 heartbeat IPC: 0.904365 cumulative IPC: 0.940998 (Simulation time: 0 hr 17 min 39 sec) 
select_counter is 1021
Heartbeat CPU 0 instructions: 54000001 cycles: 50480785 heartbeat IPC: 1.07025 cumulative IPC: 0.943588 (Simulation time: 0 hr 17 min 59 sec) 
select_counter is 956
Heartbeat CPU 0 instructions: 55000003 cycles: 51475128 heartbeat IPC: 1.00569 cumulative IPC: 0.944885 (Simulation time: 0 hr 18 min 19 sec) 
select_counter is 899
Heartbeat CPU 0 instructions: 56000000 cycles: 52564730 heartbeat IPC: 0.917764 cumulative IPC: 0.944278 (Simulation time: 0 hr 18 min 39 sec) 
select_counter is 866
Heartbeat CPU 0 instructions: 57000000 cycles: 53621663 heartbeat IPC: 0.946134 cumulative IPC: 0.944317 (Simulation time: 0 hr 18 min 59 sec) 
select_counter is 783
Heartbeat CPU 0 instructions: 58000002 cycles: 54764998 heartbeat IPC: 0.874636 cumulative IPC: 0.942753 (Simulation time: 0 hr 19 min 19 sec) 
select_counter is 781
Heartbeat CPU 0 instructions: 59000001 cycles: 55785901 heartbeat IPC: 0.979524 cumulative IPC: 0.943475 (Simulation time: 0 hr 19 min 39 sec) 
select_counter is 676
Heartbeat CPU 0 instructions: 60000000 cycles: 56943440 heartbeat IPC: 0.863901 cumulative IPC: 0.941741 (Simulation time: 0 hr 19 min 59 sec) 
select_counter is 631
Heartbeat CPU 0 instructions: 61000001 cycles: 57935561 heartbeat IPC: 1.00794 cumulative IPC: 0.942955 (Simulation time: 0 hr 20 min 20 sec) 
select_counter is 562
Heartbeat CPU 0 instructions: 62000000 cycles: 58977595 heartbeat IPC: 0.959661 cumulative IPC: 0.943271 (Simulation time: 0 hr 20 min 39 sec) 
select_counter is 471
Heartbeat CPU 0 instructions: 63000002 cycles: 60091206 heartbeat IPC: 0.897981 cumulative IPC: 0.942374 (Simulation time: 0 hr 21 min 0 sec) 
select_counter is 467
Heartbeat CPU 0 instructions: 64000000 cycles: 61001716 heartbeat IPC: 1.09828 cumulative IPC: 0.944858 (Simulation time: 0 hr 21 min 21 sec) 
select_counter is 409
Heartbeat CPU 0 instructions: 65000003 cycles: 61966144 heartbeat IPC: 1.03689 cumulative IPC: 0.946385 (Simulation time: 0 hr 21 min 41 sec) 
select_counter is 369
Heartbeat CPU 0 instructions: 66000003 cycles: 63052669 heartbeat IPC: 0.920365 cumulative IPC: 0.945908 (Simulation time: 0 hr 22 min 2 sec) 
select_counter is 367
Heartbeat CPU 0 instructions: 67000002 cycles: 64010285 heartbeat IPC: 1.04426 cumulative IPC: 0.947473 (Simulation time: 0 hr 22 min 23 sec) 
select_counter is 273
Heartbeat CPU 0 instructions: 68000000 cycles: 64981601 heartbeat IPC: 1.02953 cumulative IPC: 0.948777 (Simulation time: 0 hr 22 min 44 sec) 
select_counter is 245
Heartbeat CPU 0 instructions: 69000003 cycles: 66052551 heartbeat IPC: 0.933753 cumulative IPC: 0.948518 (Simulation time: 0 hr 23 min 4 sec) 
select_counter is 233
Heartbeat CPU 0 instructions: 70000003 cycles: 67006219 heartbeat IPC: 1.04858 cumulative IPC: 0.950029 (Simulation time: 0 hr 23 min 25 sec) 
select_counter is 150
Heartbeat CPU 0 instructions: 71000002 cycles: 67996990 heartbeat IPC: 1.00931 cumulative IPC: 0.950945 (Simulation time: 0 hr 23 min 47 sec) 
select_counter is 115
Heartbeat CPU 0 instructions: 72000000 cycles: 69050731 heartbeat IPC: 0.948998 cumulative IPC: 0.950913 (Simulation time: 0 hr 24 min 8 sec) 
select_counter is 90
Heartbeat CPU 0 instructions: 73000003 cycles: 70006649 heartbeat IPC: 1.04612 cumulative IPC: 0.952289 (Simulation time: 0 hr 24 min 28 sec) 
select_counter is 1019
Heartbeat CPU 0 instructions: 74000000 cycles: 70990587 heartbeat IPC: 1.01632 cumulative IPC: 0.953227 (Simulation time: 0 hr 24 min 48 sec) 
select_counter is 1006
Heartbeat CPU 0 instructions: 75000002 cycles: 72034068 heartbeat IPC: 0.958333 cumulative IPC: 0.953306 (Simulation time: 0 hr 25 min 8 sec) 
select_counter is 960
Heartbeat CPU 0 instructions: 76000000 cycles: 73039993 heartbeat IPC: 0.994108 cumulative IPC: 0.953899 (Simulation time: 0 hr 25 min 28 sec) 
select_counter is 870
Heartbeat CPU 0 instructions: 77000003 cycles: 74114380 heartbeat IPC: 0.930766 cumulative IPC: 0.953545 (Simulation time: 0 hr 25 min 48 sec) 
select_counter is 847
Heartbeat CPU 0 instructions: 78000002 cycles: 75116064 heartbeat IPC: 0.998318 cumulative IPC: 0.954174 (Simulation time: 0 hr 26 min 9 sec) 
select_counter is 852
Heartbeat CPU 0 instructions: 79000003 cycles: 76118474 heartbeat IPC: 0.997597 cumulative IPC: 0.954777 (Simulation time: 0 hr 26 min 28 sec) 
select_counter is 762
Heartbeat CPU 0 instructions: 80000000 cycles: 77180445 heartbeat IPC: 0.941642 cumulative IPC: 0.954586 (Simulation time: 0 hr 26 min 49 sec) 
select_counter is 751
Heartbeat CPU 0 instructions: 81000000 cycles: 78156289 heartbeat IPC: 1.02475 cumulative IPC: 0.955508 (Simulation time: 0 hr 27 min 9 sec) 
select_counter is 743
Heartbeat CPU 0 instructions: 82000002 cycles: 79180117 heartbeat IPC: 0.976728 cumulative IPC: 0.955796 (Simulation time: 0 hr 27 min 29 sec) 
select_counter is 650
Heartbeat CPU 0 instructions: 83000000 cycles: 80264933 heartbeat IPC: 0.921813 cumulative IPC: 0.955314 (Simulation time: 0 hr 27 min 50 sec) 
select_counter is 626
Heartbeat CPU 0 instructions: 84000000 cycles: 81205808 heartbeat IPC: 1.06284 cumulative IPC: 0.956622 (Simulation time: 0 hr 28 min 10 sec) 
select_counter is 626
Heartbeat CPU 0 instructions: 85000001 cycles: 82243244 heartbeat IPC: 0.963916 cumulative IPC: 0.956718 (Simulation time: 0 hr 28 min 30 sec) 
select_counter is 495
Heartbeat CPU 0 instructions: 86000002 cycles: 83304846 heartbeat IPC: 0.941974 cumulative IPC: 0.956521 (Simulation time: 0 hr 28 min 50 sec) 
select_counter is 511
Heartbeat CPU 0 instructions: 87000000 cycles: 84226706 heartbeat IPC: 1.08476 cumulative IPC: 0.957992 (Simulation time: 0 hr 29 min 10 sec) 
select_counter is 535
Heartbeat CPU 0 instructions: 88000000 cycles: 85270865 heartbeat IPC: 0.957709 cumulative IPC: 0.957989 (Simulation time: 0 hr 29 min 29 sec) 
select_counter is 418
Heartbeat CPU 0 instructions: 89000000 cycles: 86364601 heartbeat IPC: 0.914297 cumulative IPC: 0.957409 (Simulation time: 0 hr 29 min 49 sec) 
select_counter is 420
Heartbeat CPU 0 instructions: 90000000 cycles: 87241641 heartbeat IPC: 1.1402 cumulative IPC: 0.959332 (Simulation time: 0 hr 30 min 8 sec) 
select_counter is 434
Heartbeat CPU 0 instructions: 91000001 cycles: 88209305 heartbeat IPC: 1.03342 cumulative IPC: 0.960182 (Simulation time: 0 hr 30 min 28 sec) 
select_counter is 322
Heartbeat CPU 0 instructions: 92000000 cycles: 89298747 heartbeat IPC: 0.9179 cumulative IPC: 0.959643 (Simulation time: 0 hr 30 min 48 sec) 
select_counter is 340
Heartbeat CPU 0 instructions: 93000002 cycles: 90162333 heartbeat IPC: 1.15796 cumulative IPC: 0.961627 (Simulation time: 0 hr 31 min 8 sec) 
select_counter is 329
Heartbeat CPU 0 instructions: 94000000 cycles: 91144840 heartbeat IPC: 1.0178 cumulative IPC: 0.962259 (Simulation time: 0 hr 31 min 27 sec) 
select_counter is 213
Heartbeat CPU 0 instructions: 95000003 cycles: 92234806 heartbeat IPC: 0.917463 cumulative IPC: 0.961707 (Simulation time: 0 hr 31 min 47 sec) 
select_counter is 224
Heartbeat CPU 0 instructions: 96000000 cycles: 93136134 heartbeat IPC: 1.10947 cumulative IPC: 0.963198 (Simulation time: 0 hr 32 min 8 sec) 
select_counter is 205
Heartbeat CPU 0 instructions: 97000002 cycles: 94433076 heartbeat IPC: 0.771046 cumulative IPC: 0.960447 (Simulation time: 0 hr 32 min 28 sec) 
select_counter is 135
Heartbeat CPU 0 instructions: 98000003 cycles: 95511989 heartbeat IPC: 0.92686 cumulative IPC: 0.960052 (Simulation time: 0 hr 32 min 48 sec) 
select_counter is 19
Heartbeat CPU 0 instructions: 99000000 cycles: 96632906 heartbeat IPC: 0.892124 cumulative IPC: 0.959231 (Simulation time: 0 hr 33 min 11 sec) 
select_counter is 1011
Heartbeat CPU 0 instructions: 100000000 cycles: 97599818 heartbeat IPC: 1.03422 cumulative IPC: 0.960005 (Simulation time: 0 hr 33 min 31 sec) 
select_counter is 982
Heartbeat CPU 0 instructions: 101000003 cycles: 99512351 heartbeat IPC: 0.522868 cumulative IPC: 0.951265 (Simulation time: 0 hr 33 min 52 sec) 
select_counter is 673
Heartbeat CPU 0 instructions: 102000002 cycles: 100665393 heartbeat IPC: 0.86727 cumulative IPC: 0.950265 (Simulation time: 0 hr 34 min 12 sec) 
select_counter is 608
Heartbeat CPU 0 instructions: 103000002 cycles: 101877154 heartbeat IPC: 0.825245 cumulative IPC: 0.948719 (Simulation time: 0 hr 34 min 33 sec) 
select_counter is 473
Heartbeat CPU 0 instructions: 104000000 cycles: 103698041 heartbeat IPC: 0.549182 cumulative IPC: 0.941433 (Simulation time: 0 hr 34 min 53 sec) 
select_counter is 215
Heartbeat CPU 0 instructions: 105000002 cycles: 104825853 heartbeat IPC: 0.886674 cumulative IPC: 0.940821 (Simulation time: 0 hr 35 min 11 sec) 
select_counter is 88
Heartbeat CPU 0 instructions: 106000000 cycles: 105923053 heartbeat IPC: 0.911409 cumulative IPC: 0.940505 (Simulation time: 0 hr 35 min 29 sec) 
select_counter is 42
Heartbeat CPU 0 instructions: 107000001 cycles: 107452785 heartbeat IPC: 0.65371 cumulative IPC: 0.936271 (Simulation time: 0 hr 35 min 47 sec) 
select_counter is 867
Heartbeat CPU 0 instructions: 108000000 cycles: 108720203 heartbeat IPC: 0.789005 cumulative IPC: 0.934491 (Simulation time: 0 hr 36 min 4 sec) 
select_counter is 666
Heartbeat CPU 0 instructions: 109000003 cycles: 109865450 heartbeat IPC: 0.873177 cumulative IPC: 0.933828 (Simulation time: 0 hr 36 min 21 sec) 
select_counter is 655
Heartbeat CPU 0 instructions: 110000000 cycles: 111025305 heartbeat IPC: 0.862174 cumulative IPC: 0.933053 (Simulation time: 0 hr 36 min 37 sec) 
select_counter is 600
Finished CPU 0 instructions: 100000002 cycles: 107175045 cummulative IPC: 0.933053 (Simulation time: 0 hr 36 min 37 sec) 

ChampSim completed all CPUs

Region of Interest Statistics

CPU 0 cummulative IPC: 0.933053 instructions: 100000002 cycles: 107175045
LLC TOTAL     ACCESS:    1399114  HIT:    1110359  MISS:     288755
LLC LOAD      ACCESS:    1148257  HIT:     873641  MISS:     274616
LLC RFO       ACCESS:     122689  HIT:     112077  MISS:      10612
LLC PREFETCH  ACCESS:          0  HIT:          0  MISS:          0
LLC WRITEBACK ACCESS:     128168  HIT:     124641  MISS:       3527
Ship samples: 
12, 37, 76, 97, 142, 167, 206, 227, 267, 288, 326, 357, 391, 417, 457, 486, 521, 557, 577, 617, 641, 683, 717, 743, 777, 803, 836, 867, 908, 931, 967, 1006, 1027, 1064, 1091, 1127, 1165, 1193, 1220, 1254, 1290, 1317, 1353, 1380, 1420, 1447, 1484, 1510, 1542, 1574, 1613, 1642, 1671, 1702, 1733, 1773, 1804, 1838, 1858, 1899, 1934, 1960, 1996, 2030, 
Lime duel samples: 
3, 25, 41, 62, 68, 89, 105, 123, 131, 152, 164, 190, 204, 216, 225, 240, 260, 279, 298, 309, 332, 337, 360, 375, 388, 410, 423, 441, 448, 472, 489, 504, 525, 535, 558, 570, 583, 598, 608, 624, 651, 656, 674, 692, 708, 727, 740, 754, 769, 792, 800, 829, 837, 851, 869, 885, 907, 925, 936, 944, 968, 979, 998, 1015, 1038, 1053, 1066, 1084, 1092, 1106, 1120, 1149, 1162, 1182, 1197, 1208, 1223, 1232, 1252, 1274, 1292, 1300, 1319, 1329, 1351, 1363, 1383, 1394, 1411, 1434, 1452, 1461, 1483, 1492, 1514, 1521, 1537, 1557, 1571, 1587, 1600, 1624, 1634, 1653, 1664, 1689, 1710, 1721, 1738, 1746, 1771, 1780, 1795, 1820, 1831, 1842, 1863, 1886, 1895, 1914, 1932, 1942, 1953, 1974, 1987, 2010, 2019, 2040, 
Lime samples: 
3, 105, 204, 298, 388, 489, 583, 674, 769, 869, 968, 1066, 1162, 1252, 1351, 1452, 1537, 1634, 1738, 1831, 1932, 
Insertion Distribution: 
	LOAD 11248 0 0 0 0 0 28967 126883 
	RFO 1871 0 0 0 0 0 3982 63 
	PREF 0 0 0 0 0 0 0 0 
	WRITEBACK 0 0 0 0 0 0 0 889 
Total Prefetch Downgrades: 0
