
*** ChampSim Multicore Out-of-Order Simulator ***

Warmup Instructions: 10000000
Simulation Instructions: 100000000
Configuration: 1
Number of CPUs: 1
LLC sets: 2048
LLC ways: 16
Off-chip DRAM Channels: 1 Width: 64-bit Data Rate: 1600 MT/s

CPU 0 runs /datasets/cs240c-wi22-a00-public/data/Assignment2-gz/mcf_158B.trace.gz
Heartbeat CPU 0 instructions: 1000002 cycles: 496492 heartbeat IPC: 2.01414 cumulative IPC: 2.01414 (Simulation time: 0 hr 0 min 29 sec) 
select_counter is 718
Heartbeat CPU 0 instructions: 2000002 cycles: 992137 heartbeat IPC: 2.01757 cumulative IPC: 2.01585 (Simulation time: 0 hr 0 min 57 sec) 
select_counter is 492
Heartbeat CPU 0 instructions: 3000000 cycles: 1488417 heartbeat IPC: 2.01499 cumulative IPC: 2.01556 (Simulation time: 0 hr 1 min 25 sec) 
select_counter is 330
Heartbeat CPU 0 instructions: 4000000 cycles: 1983409 heartbeat IPC: 2.02023 cumulative IPC: 2.01673 (Simulation time: 0 hr 1 min 52 sec) 
select_counter is 329
Heartbeat CPU 0 instructions: 5000002 cycles: 2477108 heartbeat IPC: 2.02553 cumulative IPC: 2.01848 (Simulation time: 0 hr 2 min 18 sec) 
select_counter is 551
Heartbeat CPU 0 instructions: 6000001 cycles: 2976292 heartbeat IPC: 2.00327 cumulative IPC: 2.01593 (Simulation time: 0 hr 2 min 45 sec) 
select_counter is 677
Heartbeat CPU 0 instructions: 7000001 cycles: 3471100 heartbeat IPC: 2.02099 cumulative IPC: 2.01665 (Simulation time: 0 hr 3 min 13 sec) 
select_counter is 906
Heartbeat CPU 0 instructions: 8000000 cycles: 3967181 heartbeat IPC: 2.0158 cumulative IPC: 2.01655 (Simulation time: 0 hr 3 min 42 sec) 
select_counter is 45
Heartbeat CPU 0 instructions: 9000000 cycles: 4473920 heartbeat IPC: 1.9734 cumulative IPC: 2.01166 (Simulation time: 0 hr 4 min 11 sec) 
select_counter is 808
Heartbeat CPU 0 instructions: 10000001 cycles: 5001307 heartbeat IPC: 1.89614 cumulative IPC: 1.99948 (Simulation time: 0 hr 4 min 39 sec) 
select_counter is 956

Warmup complete CPU 0 instructions: 10000001 cycles: 5001307 (Simulation time: 0 hr 4 min 39 sec) 

Heartbeat CPU 0 instructions: 11000000 cycles: 18266376 heartbeat IPC: 0.0753859 cumulative IPC: 0.0753859 (Simulation time: 0 hr 5 min 22 sec) 
select_counter is 566
Heartbeat CPU 0 instructions: 12000000 cycles: 29967787 heartbeat IPC: 0.0854598 cumulative IPC: 0.0801074 (Simulation time: 0 hr 6 min 3 sec) 
select_counter is 746
Heartbeat CPU 0 instructions: 13000001 cycles: 41812946 heartbeat IPC: 0.0844228 cumulative IPC: 0.081496 (Simulation time: 0 hr 6 min 41 sec) 
select_counter is 972
Heartbeat CPU 0 instructions: 14000001 cycles: 52640851 heartbeat IPC: 0.092354 cumulative IPC: 0.0839639 (Simulation time: 0 hr 7 min 18 sec) 
select_counter is 410
Heartbeat CPU 0 instructions: 15000000 cycles: 64434038 heartbeat IPC: 0.0847946 cumulative IPC: 0.0841287 (Simulation time: 0 hr 7 min 59 sec) 
select_counter is 659
Heartbeat CPU 0 instructions: 16000000 cycles: 81421253 heartbeat IPC: 0.0588678 cumulative IPC: 0.0785135 (Simulation time: 0 hr 8 min 53 sec) 
select_counter is 38
Heartbeat CPU 0 instructions: 17000001 cycles: 95871950 heartbeat IPC: 0.0692009 cumulative IPC: 0.0770326 (Simulation time: 0 hr 9 min 42 sec) 
select_counter is 42
Heartbeat CPU 0 instructions: 18000000 cycles: 107949266 heartbeat IPC: 0.0827998 cumulative IPC: 0.0777092 (Simulation time: 0 hr 10 min 27 sec) 
select_counter is 161
Heartbeat CPU 0 instructions: 19000001 cycles: 120682792 heartbeat IPC: 0.0785329 cumulative IPC: 0.0777998 (Simulation time: 0 hr 11 min 11 sec) 
select_counter is 289
Heartbeat CPU 0 instructions: 20000000 cycles: 132949962 heartbeat IPC: 0.0815183 cumulative IPC: 0.0781563 (Simulation time: 0 hr 11 min 51 sec) 
select_counter is 467
Heartbeat CPU 0 instructions: 21000000 cycles: 145074761 heartbeat IPC: 0.0824756 cumulative IPC: 0.0785302 (Simulation time: 0 hr 12 min 33 sec) 
select_counter is 643
Heartbeat CPU 0 instructions: 22000002 cycles: 157568820 heartbeat IPC: 0.0800382 cumulative IPC: 0.0786537 (Simulation time: 0 hr 13 min 15 sec) 
select_counter is 753
Heartbeat CPU 0 instructions: 23000002 cycles: 170929688 heartbeat IPC: 0.0748454 cumulative IPC: 0.0783471 (Simulation time: 0 hr 14 min 4 sec) 
select_counter is 408
Heartbeat CPU 0 instructions: 24000000 cycles: 188256735 heartbeat IPC: 0.0577131 cumulative IPC: 0.0763961 (Simulation time: 0 hr 14 min 57 sec) 
select_counter is 362
Heartbeat CPU 0 instructions: 25000000 cycles: 200305336 heartbeat IPC: 0.0829972 cumulative IPC: 0.0768033 (Simulation time: 0 hr 15 min 35 sec) 
select_counter is 312
Heartbeat CPU 0 instructions: 26000000 cycles: 209817180 heartbeat IPC: 0.105132 cumulative IPC: 0.0781189 (Simulation time: 0 hr 16 min 10 sec) 
select_counter is 928
Heartbeat CPU 0 instructions: 27000002 cycles: 219472008 heartbeat IPC: 0.103575 cumulative IPC: 0.0792649 (Simulation time: 0 hr 16 min 46 sec) 
select_counter is 557
Heartbeat CPU 0 instructions: 28000000 cycles: 235011669 heartbeat IPC: 0.0643513 cumulative IPC: 0.0782573 (Simulation time: 0 hr 17 min 40 sec) 
select_counter is 508
Heartbeat CPU 0 instructions: 29000003 cycles: 245738859 heartbeat IPC: 0.0932213 cumulative IPC: 0.0789241 (Simulation time: 0 hr 18 min 22 sec) 
select_counter is 172
Heartbeat CPU 0 instructions: 30000003 cycles: 254467739 heartbeat IPC: 0.114562 cumulative IPC: 0.0801711 (Simulation time: 0 hr 18 min 55 sec) 
select_counter is 920
Heartbeat CPU 0 instructions: 31000003 cycles: 264156308 heartbeat IPC: 0.103214 cumulative IPC: 0.0810326 (Simulation time: 0 hr 19 min 31 sec) 
select_counter is 138
Heartbeat CPU 0 instructions: 32000000 cycles: 279384020 heartbeat IPC: 0.0656696 cumulative IPC: 0.08018 (Simulation time: 0 hr 20 min 22 sec) 
select_counter is 264
Heartbeat CPU 0 instructions: 33000000 cycles: 288965834 heartbeat IPC: 0.104364 cumulative IPC: 0.080996 (Simulation time: 0 hr 20 min 57 sec) 
select_counter is 742
Heartbeat CPU 0 instructions: 34000000 cycles: 299024753 heartbeat IPC: 0.0994143 cumulative IPC: 0.0816261 (Simulation time: 0 hr 21 min 34 sec) 
select_counter is 279
Heartbeat CPU 0 instructions: 35000001 cycles: 309729938 heartbeat IPC: 0.0934128 cumulative IPC: 0.0820402 (Simulation time: 0 hr 22 min 13 sec) 
select_counter is 602
Heartbeat CPU 0 instructions: 36000000 cycles: 325873453 heartbeat IPC: 0.0619443 cumulative IPC: 0.0810292 (Simulation time: 0 hr 23 min 7 sec) 
select_counter is 462
Heartbeat CPU 0 instructions: 37000001 cycles: 337061936 heartbeat IPC: 0.0893777 cumulative IPC: 0.0813105 (Simulation time: 0 hr 23 min 45 sec) 
select_counter is 507
Heartbeat CPU 0 instructions: 38000000 cycles: 347751612 heartbeat IPC: 0.0935481 cumulative IPC: 0.0816921 (Simulation time: 0 hr 24 min 27 sec) 
select_counter is 925
Heartbeat CPU 0 instructions: 39000000 cycles: 356611916 heartbeat IPC: 0.112863 cumulative IPC: 0.0824776 (Simulation time: 0 hr 25 min 2 sec) 
select_counter is 650
Heartbeat CPU 0 instructions: 40000000 cycles: 371601823 heartbeat IPC: 0.0667116 cumulative IPC: 0.0818329 (Simulation time: 0 hr 25 min 53 sec) 
select_counter is 7
Heartbeat CPU 0 instructions: 41000003 cycles: 381820965 heartbeat IPC: 0.0978559 cumulative IPC: 0.0822675 (Simulation time: 0 hr 26 min 33 sec) 
select_counter is 749
Heartbeat CPU 0 instructions: 42000000 cycles: 390580247 heartbeat IPC: 0.114164 cumulative IPC: 0.0829921 (Simulation time: 0 hr 27 min 8 sec) 
select_counter is 394
Heartbeat CPU 0 instructions: 43000001 cycles: 402229278 heartbeat IPC: 0.0858441 cumulative IPC: 0.0830757 (Simulation time: 0 hr 27 min 54 sec) 
select_counter is 859
Heartbeat CPU 0 instructions: 44000000 cycles: 414859893 heartbeat IPC: 0.0791726 cumulative IPC: 0.0829554 (Simulation time: 0 hr 28 min 38 sec) 
select_counter is 801
Heartbeat CPU 0 instructions: 45000000 cycles: 422476780 heartbeat IPC: 0.131287 cumulative IPC: 0.0838373 (Simulation time: 0 hr 29 min 11 sec) 
select_counter is 662
Heartbeat CPU 0 instructions: 46000002 cycles: 433661102 heartbeat IPC: 0.0894111 cumulative IPC: 0.0839827 (Simulation time: 0 hr 29 min 49 sec) 
select_counter is 191
Heartbeat CPU 0 instructions: 47000002 cycles: 446597951 heartbeat IPC: 0.0772986 cumulative IPC: 0.0837869 (Simulation time: 0 hr 30 min 34 sec) 
select_counter is 182
Heartbeat CPU 0 instructions: 48000000 cycles: 454594000 heartbeat IPC: 0.125062 cumulative IPC: 0.0845209 (Simulation time: 0 hr 31 min 6 sec) 
select_counter is 35
Heartbeat CPU 0 instructions: 49000000 cycles: 465719966 heartbeat IPC: 0.0898798 cumulative IPC: 0.0846504 (Simulation time: 0 hr 31 min 44 sec) 
select_counter is 742
Heartbeat CPU 0 instructions: 50000000 cycles: 478757505 heartbeat IPC: 0.0767016 cumulative IPC: 0.0844316 (Simulation time: 0 hr 32 min 34 sec) 
select_counter is 709
Heartbeat CPU 0 instructions: 51000000 cycles: 486405478 heartbeat IPC: 0.130754 cumulative IPC: 0.0851675 (Simulation time: 0 hr 33 min 7 sec) 
select_counter is 637
Heartbeat CPU 0 instructions: 52000000 cycles: 496898101 heartbeat IPC: 0.0953051 cumulative IPC: 0.0853838 (Simulation time: 0 hr 33 min 46 sec) 
select_counter is 505
Heartbeat CPU 0 instructions: 53000000 cycles: 510832016 heartbeat IPC: 0.0717673 cumulative IPC: 0.0850087 (Simulation time: 0 hr 34 min 31 sec) 
select_counter is 191
Heartbeat CPU 0 instructions: 54000000 cycles: 518788616 heartbeat IPC: 0.125682 cumulative IPC: 0.0856385 (Simulation time: 0 hr 35 min 2 sec) 
select_counter is 12
Heartbeat CPU 0 instructions: 55000000 cycles: 528004486 heartbeat IPC: 0.108508 cumulative IPC: 0.0860415 (Simulation time: 0 hr 35 min 36 sec) 
select_counter is 334
Heartbeat CPU 0 instructions: 56000000 cycles: 543005403 heartbeat IPC: 0.0666626 cumulative IPC: 0.0855012 (Simulation time: 0 hr 36 min 17 sec) 
select_counter is 561
Heartbeat CPU 0 instructions: 57000001 cycles: 550761208 heartbeat IPC: 0.128936 cumulative IPC: 0.0861185 (Simulation time: 0 hr 36 min 42 sec) 
select_counter is 362
Heartbeat CPU 0 instructions: 58000000 cycles: 558423014 heartbeat IPC: 0.130517 cumulative IPC: 0.0867331 (Simulation time: 0 hr 37 min 4 sec) 
select_counter is 294
Heartbeat CPU 0 instructions: 59000000 cycles: 574356575 heartbeat IPC: 0.0627606 cumulative IPC: 0.0860623 (Simulation time: 0 hr 37 min 43 sec) 
select_counter is 195
Heartbeat CPU 0 instructions: 60000000 cycles: 582332608 heartbeat IPC: 0.125376 cumulative IPC: 0.0866054 (Simulation time: 0 hr 38 min 7 sec) 
select_counter is 904
Heartbeat CPU 0 instructions: 61000000 cycles: 590511227 heartbeat IPC: 0.12227 cumulative IPC: 0.0871036 (Simulation time: 0 hr 38 min 29 sec) 
select_counter is 838
Heartbeat CPU 0 instructions: 62000001 cycles: 603478349 heartbeat IPC: 0.0771182 cumulative IPC: 0.0868872 (Simulation time: 0 hr 38 min 59 sec) 
select_counter is 990
Heartbeat CPU 0 instructions: 63000001 cycles: 614414535 heartbeat IPC: 0.0914396 cumulative IPC: 0.0869689 (Simulation time: 0 hr 39 min 25 sec) 
select_counter is 412
Heartbeat CPU 0 instructions: 64000000 cycles: 621886151 heartbeat IPC: 0.13384 cumulative IPC: 0.0875366 (Simulation time: 0 hr 39 min 48 sec) 
select_counter is 318
Heartbeat CPU 0 instructions: 65000000 cycles: 630286621 heartbeat IPC: 0.119041 cumulative IPC: 0.0879598 (Simulation time: 0 hr 40 min 9 sec) 
select_counter is 916
Heartbeat CPU 0 instructions: 66000000 cycles: 645424721 heartbeat IPC: 0.0660585 cumulative IPC: 0.0874421 (Simulation time: 0 hr 40 min 37 sec) 
select_counter is 116
Heartbeat CPU 0 instructions: 67000002 cycles: 652654557 heartbeat IPC: 0.138316 cumulative IPC: 0.0880101 (Simulation time: 0 hr 40 min 56 sec) 
select_counter is 153
Heartbeat CPU 0 instructions: 68000000 cycles: 659819930 heartbeat IPC: 0.13956 cumulative IPC: 0.0885741 (Simulation time: 0 hr 41 min 15 sec) 
select_counter is 208
Heartbeat CPU 0 instructions: 69000000 cycles: 673478839 heartbeat IPC: 0.0732123 cumulative IPC: 0.0882603 (Simulation time: 0 hr 41 min 41 sec) 
select_counter is 947
Heartbeat CPU 0 instructions: 70000000 cycles: 683467689 heartbeat IPC: 0.100112 cumulative IPC: 0.0884347 (Simulation time: 0 hr 42 min 3 sec) 
select_counter is 846
Heartbeat CPU 0 instructions: 71000002 cycles: 690689619 heartbeat IPC: 0.138467 cumulative IPC: 0.0889617 (Simulation time: 0 hr 42 min 22 sec) 
select_counter is 862
Heartbeat CPU 0 instructions: 72000000 cycles: 699603576 heartbeat IPC: 0.112183 cumulative IPC: 0.0892597 (Simulation time: 0 hr 42 min 42 sec) 
select_counter is 287
Heartbeat CPU 0 instructions: 73000000 cycles: 714265558 heartbeat IPC: 0.0682036 cumulative IPC: 0.0888244 (Simulation time: 0 hr 43 min 5 sec) 
select_counter is 752
Heartbeat CPU 0 instructions: 74000000 cycles: 721798778 heartbeat IPC: 0.132745 cumulative IPC: 0.089286 (Simulation time: 0 hr 43 min 19 sec) 
select_counter is 709
Heartbeat CPU 0 instructions: 75000001 cycles: 729463399 heartbeat IPC: 0.13047 cumulative IPC: 0.0897217 (Simulation time: 0 hr 43 min 32 sec) 
select_counter is 692
Heartbeat CPU 0 instructions: 76000000 cycles: 742249034 heartbeat IPC: 0.0782127 cumulative IPC: 0.0895221 (Simulation time: 0 hr 43 min 48 sec) 
select_counter is 857
Heartbeat CPU 0 instructions: 77000000 cycles: 753613188 heartbeat IPC: 0.087996 cumulative IPC: 0.089499 (Simulation time: 0 hr 44 min 1 sec) 
select_counter is 494
Heartbeat CPU 0 instructions: 78000000 cycles: 761988904 heartbeat IPC: 0.119393 cumulative IPC: 0.0898297 (Simulation time: 0 hr 44 min 12 sec) 
select_counter is 319
Heartbeat CPU 0 instructions: 79000003 cycles: 770558920 heartbeat IPC: 0.116686 cumulative IPC: 0.0901304 (Simulation time: 0 hr 44 min 23 sec) 
select_counter is 1023
Heartbeat CPU 0 instructions: 80000000 cycles: 786120157 heartbeat IPC: 0.064262 cumulative IPC: 0.089615 (Simulation time: 0 hr 44 min 35 sec) 
select_counter is 122
Heartbeat CPU 0 instructions: 81000001 cycles: 794954503 heartbeat IPC: 0.113195 cumulative IPC: 0.0898787 (Simulation time: 0 hr 44 min 43 sec) 
select_counter is 660
Heartbeat CPU 0 instructions: 82000001 cycles: 803703239 heartbeat IPC: 0.114302 cumulative IPC: 0.0901463 (Simulation time: 0 hr 44 min 50 sec) 
select_counter is 355
Heartbeat CPU 0 instructions: 83000001 cycles: 817155914 heartbeat IPC: 0.0743347 cumulative IPC: 0.0898844 (Simulation time: 0 hr 44 min 59 sec) 
select_counter is 194
Heartbeat CPU 0 instructions: 84000000 cycles: 829372032 heartbeat IPC: 0.081859 cumulative IPC: 0.0897654 (Simulation time: 0 hr 45 min 7 sec) 
select_counter is 454
Heartbeat CPU 0 instructions: 85000000 cycles: 837295060 heartbeat IPC: 0.126214 cumulative IPC: 0.0901124 (Simulation time: 0 hr 45 min 12 sec) 
select_counter is 290
Heartbeat CPU 0 instructions: 86000000 cycles: 846297429 heartbeat IPC: 0.111082 cumulative IPC: 0.0903368 (Simulation time: 0 hr 45 min 18 sec) 
select_counter is 732
Heartbeat CPU 0 instructions: 87000000 cycles: 861595467 heartbeat IPC: 0.0653679 cumulative IPC: 0.0898909 (Simulation time: 0 hr 45 min 25 sec) 
select_counter is 926
Heartbeat CPU 0 instructions: 88000000 cycles: 870068652 heartbeat IPC: 0.118019 cumulative IPC: 0.0901664 (Simulation time: 0 hr 45 min 31 sec) 
select_counter is 474
Heartbeat CPU 0 instructions: 89000000 cycles: 878926061 heartbeat IPC: 0.1129 cumulative IPC: 0.0903968 (Simulation time: 0 hr 45 min 35 sec) 
select_counter is 189
Heartbeat CPU 0 instructions: 90000002 cycles: 893228724 heartbeat IPC: 0.0699172 cumulative IPC: 0.090067 (Simulation time: 0 hr 45 min 41 sec) 
select_counter is 845
Heartbeat CPU 0 instructions: 91000000 cycles: 903600396 heartbeat IPC: 0.0964163 cumulative IPC: 0.0901403 (Simulation time: 0 hr 45 min 46 sec) 
select_counter is 640
Heartbeat CPU 0 instructions: 92000000 cycles: 911966379 heartbeat IPC: 0.119532 cumulative IPC: 0.0904114 (Simulation time: 0 hr 45 min 50 sec) 
select_counter is 369
Heartbeat CPU 0 instructions: 93000003 cycles: 924123965 heartbeat IPC: 0.0822534 cumulative IPC: 0.0903035 (Simulation time: 0 hr 45 min 55 sec) 
select_counter is 488
Heartbeat CPU 0 instructions: 94000000 cycles: 936897703 heartbeat IPC: 0.0782854 cumulative IPC: 0.0901388 (Simulation time: 0 hr 46 min 1 sec) 
select_counter is 377
Heartbeat CPU 0 instructions: 95000000 cycles: 945441202 heartbeat IPC: 0.117048 cumulative IPC: 0.0903832 (Simulation time: 0 hr 46 min 5 sec) 
select_counter is 26
Heartbeat CPU 0 instructions: 96000000 cycles: 954359640 heartbeat IPC: 0.112127 cumulative IPC: 0.0905875 (Simulation time: 0 hr 46 min 9 sec) 
select_counter is 632
Heartbeat CPU 0 instructions: 97000003 cycles: 970382415 heartbeat IPC: 0.0624113 cumulative IPC: 0.0901199 (Simulation time: 0 hr 46 min 16 sec) 
select_counter is 657
Heartbeat CPU 0 instructions: 98000002 cycles: 979369982 heartbeat IPC: 0.111265 cumulative IPC: 0.0903149 (Simulation time: 0 hr 46 min 20 sec) 
select_counter is 89
Heartbeat CPU 0 instructions: 99000000 cycles: 988357710 heartbeat IPC: 0.111263 cumulative IPC: 0.0905064 (Simulation time: 0 hr 46 min 24 sec) 
select_counter is 782
Heartbeat CPU 0 instructions: 100000000 cycles: 1002822883 heartbeat IPC: 0.0691316 cumulative IPC: 0.0901965 (Simulation time: 0 hr 46 min 30 sec) 
select_counter is 287
Heartbeat CPU 0 instructions: 101000000 cycles: 1014660621 heartbeat IPC: 0.0844756 cumulative IPC: 0.0901294 (Simulation time: 0 hr 46 min 35 sec) 
select_counter is 603
Heartbeat CPU 0 instructions: 102000000 cycles: 1024051994 heartbeat IPC: 0.106481 cumulative IPC: 0.0902801 (Simulation time: 0 hr 46 min 40 sec) 
select_counter is 175
Heartbeat CPU 0 instructions: 103000001 cycles: 1032954626 heartbeat IPC: 0.112326 cumulative IPC: 0.090471 (Simulation time: 0 hr 46 min 44 sec) 
select_counter is 947
Heartbeat CPU 0 instructions: 104000000 cycles: 1049179549 heartbeat IPC: 0.0616335 cumulative IPC: 0.0900229 (Simulation time: 0 hr 46 min 51 sec) 
select_counter is 97
Heartbeat CPU 0 instructions: 105000000 cycles: 1059593756 heartbeat IPC: 0.0960227 cumulative IPC: 0.0900822 (Simulation time: 0 hr 46 min 55 sec) 
select_counter is 32
Heartbeat CPU 0 instructions: 106000000 cycles: 1069001900 heartbeat IPC: 0.106291 cumulative IPC: 0.0902255 (Simulation time: 0 hr 47 min 0 sec) 
select_counter is 608
Heartbeat CPU 0 instructions: 107000000 cycles: 1080628009 heartbeat IPC: 0.0860133 cumulative IPC: 0.09018 (Simulation time: 0 hr 47 min 5 sec) 
select_counter is 139
Heartbeat CPU 0 instructions: 108000000 cycles: 1095428610 heartbeat IPC: 0.0675648 cumulative IPC: 0.089873 (Simulation time: 0 hr 47 min 11 sec) 
select_counter is 768
Heartbeat CPU 0 instructions: 109000001 cycles: 1104934082 heartbeat IPC: 0.105203 cumulative IPC: 0.0900055 (Simulation time: 0 hr 47 min 15 sec) 
select_counter is 98
Heartbeat CPU 0 instructions: 110000000 cycles: 1115104973 heartbeat IPC: 0.0983197 cumulative IPC: 0.0900817 (Simulation time: 0 hr 47 min 20 sec) 
select_counter is 590
Finished CPU 0 instructions: 100000002 cycles: 1110103668 cummulative IPC: 0.0900817 (Simulation time: 0 hr 47 min 20 sec) 

ChampSim completed all CPUs

Region of Interest Statistics

CPU 0 cummulative IPC: 0.0900817 instructions: 100000002 cycles: 1110103668
LLC TOTAL     ACCESS:   12168004  HIT:    5638231  MISS:    6529773
LLC LOAD      ACCESS:   10389089  HIT:    4498016  MISS:    5891073
LLC RFO       ACCESS:     150315  HIT:      85288  MISS:      65027
LLC PREFETCH  ACCESS:          0  HIT:          0  MISS:          0
LLC WRITEBACK ACCESS:    1628600  HIT:    1054927  MISS:     573673
Ship samples: 
13, 41, 69, 103, 130, 169, 204, 225, 268, 288, 331, 365, 390, 417, 451, 493, 519, 549, 589, 608, 651, 674, 707, 736, 781, 813, 832, 868, 906, 935, 963, 992, 1037, 1065, 1098, 1122, 1165, 1190, 1230, 1249, 1291, 1316, 1345, 1389, 1422, 1448, 1481, 1514, 1550, 1582, 1612, 1645, 1668, 1699, 1738, 1770, 1802, 1828, 1862, 1895, 1932, 1954, 1995, 2016, 
Lime duel samples: 
14, 28, 45, 58, 78, 94, 105, 122, 129, 155, 163, 179, 196, 222, 233, 246, 269, 276, 295, 308, 332, 347, 355, 371, 384, 405, 416, 443, 458, 478, 490, 497, 515, 534, 556, 567, 584, 595, 616, 631, 652, 670, 672, 692, 710, 734, 745, 752, 776, 790, 804, 821, 835, 852, 864, 883, 903, 915, 940, 954, 969, 980, 1002, 1009, 1030, 1045, 1066, 1078, 1102, 1114, 1120, 1145, 1162, 1171, 1193, 1213, 1218, 1232, 1256, 1264, 1286, 1305, 1315, 1334, 1358, 1364, 1387, 1396, 1412, 1434, 1453, 1465, 1486, 1498, 1506, 1533, 1543, 1560, 1571, 1591, 1608, 1618, 1634, 1657, 1677, 1691, 1702, 1722, 1741, 1754, 1768, 1784, 1795, 1810, 1826, 1850, 1870, 1881, 1888, 1913, 1924, 1943, 1953, 1977, 1996, 2000, 2023, 2036, 
Lime samples: 
14, 105, 196, 295, 384, 490, 584, 672, 776, 864, 969, 1066, 1162, 1256, 1358, 1453, 1543, 1634, 1741, 1826, 1924, 
Insertion Distribution: 
	LOAD 138998 0 0 0 0 0 67184 2982435 
	RFO 375 0 0 0 0 0 5560 27254 
	PREF 0 0 0 0 0 0 0 0 
	WRITEBACK 0 0 0 0 0 0 0 314369 
Total Prefetch Downgrades: 0
