
*** ChampSim Multicore Out-of-Order Simulator ***

Warmup Instructions: 10000000
Simulation Instructions: 100000000
Configuration: 1
Number of CPUs: 1
LLC sets: 2048
LLC ways: 16
Off-chip DRAM Channels: 1 Width: 64-bit Data Rate: 1600 MT/s

CPU 0 runs /datasets/cs240c-wi22-a00-public/data/Assignment2-gz/wrf_1228B.trace.gz
Heartbeat CPU 0 instructions: 1000003 cycles: 590333 heartbeat IPC: 1.69396 cumulative IPC: 1.69396 (Simulation time: 0 hr 0 min 26 sec) 
select_counter is 483
Heartbeat CPU 0 instructions: 2000002 cycles: 1100519 heartbeat IPC: 1.96007 cumulative IPC: 1.81733 (Simulation time: 0 hr 0 min 51 sec) 
select_counter is 373
Heartbeat CPU 0 instructions: 3000000 cycles: 1708712 heartbeat IPC: 1.64421 cumulative IPC: 1.75571 (Simulation time: 0 hr 1 min 20 sec) 
select_counter is 321
Heartbeat CPU 0 instructions: 4000000 cycles: 2319510 heartbeat IPC: 1.6372 cumulative IPC: 1.7245 (Simulation time: 0 hr 1 min 49 sec) 
select_counter is 554
Heartbeat CPU 0 instructions: 5000000 cycles: 3014502 heartbeat IPC: 1.43887 cumulative IPC: 1.65865 (Simulation time: 0 hr 2 min 17 sec) 
select_counter is 454
Heartbeat CPU 0 instructions: 6000000 cycles: 3573829 heartbeat IPC: 1.78786 cumulative IPC: 1.67887 (Simulation time: 0 hr 2 min 41 sec) 
select_counter is 210
Heartbeat CPU 0 instructions: 7000001 cycles: 4126172 heartbeat IPC: 1.81047 cumulative IPC: 1.69649 (Simulation time: 0 hr 3 min 6 sec) 
select_counter is 937
Heartbeat CPU 0 instructions: 8000000 cycles: 4677096 heartbeat IPC: 1.81513 cumulative IPC: 1.71046 (Simulation time: 0 hr 3 min 29 sec) 
select_counter is 674
Heartbeat CPU 0 instructions: 9000002 cycles: 5226586 heartbeat IPC: 1.81987 cumulative IPC: 1.72197 (Simulation time: 0 hr 3 min 51 sec) 
select_counter is 372
Heartbeat CPU 0 instructions: 10000001 cycles: 5778785 heartbeat IPC: 1.81094 cumulative IPC: 1.73047 (Simulation time: 0 hr 4 min 14 sec) 
select_counter is 130

Warmup complete CPU 0 instructions: 10000001 cycles: 5778785 (Simulation time: 0 hr 4 min 14 sec) 

Heartbeat CPU 0 instructions: 11000003 cycles: 7399271 heartbeat IPC: 0.6171 cumulative IPC: 0.6171 (Simulation time: 0 hr 4 min 40 sec) 
select_counter is 902
Heartbeat CPU 0 instructions: 12000000 cycles: 9076508 heartbeat IPC: 0.596217 cumulative IPC: 0.606479 (Simulation time: 0 hr 5 min 8 sec) 
select_counter is 674
Heartbeat CPU 0 instructions: 13000003 cycles: 10746090 heartbeat IPC: 0.598954 cumulative IPC: 0.60395 (Simulation time: 0 hr 5 min 34 sec) 
select_counter is 473
Heartbeat CPU 0 instructions: 14000002 cycles: 12397858 heartbeat IPC: 0.605411 cumulative IPC: 0.604314 (Simulation time: 0 hr 6 min 1 sec) 
select_counter is 172
Heartbeat CPU 0 instructions: 15000001 cycles: 13908780 heartbeat IPC: 0.661847 cumulative IPC: 0.615007 (Simulation time: 0 hr 6 min 25 sec) 
select_counter is 765
Heartbeat CPU 0 instructions: 16000000 cycles: 15418508 heartbeat IPC: 0.66237 cumulative IPC: 0.622424 (Simulation time: 0 hr 6 min 51 sec) 
select_counter is 400
Heartbeat CPU 0 instructions: 17000002 cycles: 16911533 heartbeat IPC: 0.669782 cumulative IPC: 0.628776 (Simulation time: 0 hr 7 min 16 sec) 
select_counter is 119
Heartbeat CPU 0 instructions: 18000000 cycles: 18472595 heartbeat IPC: 0.640588 cumulative IPC: 0.630228 (Simulation time: 0 hr 7 min 39 sec) 
select_counter is 863
Heartbeat CPU 0 instructions: 19000000 cycles: 20031513 heartbeat IPC: 0.641471 cumulative IPC: 0.631458 (Simulation time: 0 hr 8 min 5 sec) 
select_counter is 636
Heartbeat CPU 0 instructions: 20000000 cycles: 21479888 heartbeat IPC: 0.690429 cumulative IPC: 0.636898 (Simulation time: 0 hr 8 min 29 sec) 
select_counter is 442
Heartbeat CPU 0 instructions: 21000000 cycles: 22883581 heartbeat IPC: 0.712407 cumulative IPC: 0.643094 (Simulation time: 0 hr 8 min 53 sec) 
select_counter is 337
Heartbeat CPU 0 instructions: 22000003 cycles: 24410651 heartbeat IPC: 0.654851 cumulative IPC: 0.644058 (Simulation time: 0 hr 9 min 21 sec) 
select_counter is 209
Heartbeat CPU 0 instructions: 23000003 cycles: 26146052 heartbeat IPC: 0.576236 cumulative IPC: 0.638279 (Simulation time: 0 hr 9 min 52 sec) 
select_counter is 670
Heartbeat CPU 0 instructions: 24000000 cycles: 27825957 heartbeat IPC: 0.59527 cumulative IPC: 0.635002 (Simulation time: 0 hr 10 min 20 sec) 
select_counter is 219
Heartbeat CPU 0 instructions: 25000000 cycles: 29522952 heartbeat IPC: 0.589277 cumulative IPC: 0.631734 (Simulation time: 0 hr 10 min 49 sec) 
select_counter is 881
Heartbeat CPU 0 instructions: 26000002 cycles: 31306132 heartbeat IPC: 0.560797 cumulative IPC: 0.626779 (Simulation time: 0 hr 11 min 18 sec) 
select_counter is 591
Heartbeat CPU 0 instructions: 27000003 cycles: 32990353 heartbeat IPC: 0.593747 cumulative IPC: 0.624734 (Simulation time: 0 hr 11 min 47 sec) 
select_counter is 352
Heartbeat CPU 0 instructions: 28000000 cycles: 34637440 heartbeat IPC: 0.607131 cumulative IPC: 0.62373 (Simulation time: 0 hr 12 min 17 sec) 
select_counter is 178
Heartbeat CPU 0 instructions: 29000003 cycles: 36658074 heartbeat IPC: 0.494896 cumulative IPC: 0.615299 (Simulation time: 0 hr 12 min 49 sec) 
select_counter is 472
Heartbeat CPU 0 instructions: 30000000 cycles: 38887482 heartbeat IPC: 0.448548 cumulative IPC: 0.604071 (Simulation time: 0 hr 13 min 18 sec) 
select_counter is 923
Heartbeat CPU 0 instructions: 31000003 cycles: 41692027 heartbeat IPC: 0.356565 cumulative IPC: 0.584743 (Simulation time: 0 hr 13 min 52 sec) 
select_counter is 531
Heartbeat CPU 0 instructions: 32000000 cycles: 44246108 heartbeat IPC: 0.391529 cumulative IPC: 0.571914 (Simulation time: 0 hr 14 min 26 sec) 
select_counter is 594
Heartbeat CPU 0 instructions: 33000001 cycles: 46259433 heartbeat IPC: 0.496691 cumulative IPC: 0.568173 (Simulation time: 0 hr 14 min 57 sec) 
select_counter is 351
Heartbeat CPU 0 instructions: 34000002 cycles: 48332854 heartbeat IPC: 0.482295 cumulative IPC: 0.563988 (Simulation time: 0 hr 15 min 29 sec) 
select_counter is 266
Heartbeat CPU 0 instructions: 35000001 cycles: 50712066 heartbeat IPC: 0.420307 cumulative IPC: 0.55638 (Simulation time: 0 hr 15 min 59 sec) 
select_counter is 741
Heartbeat CPU 0 instructions: 36000000 cycles: 52482263 heartbeat IPC: 0.564908 cumulative IPC: 0.556704 (Simulation time: 0 hr 16 min 30 sec) 
select_counter is 400
Heartbeat CPU 0 instructions: 37000001 cycles: 54208551 heartbeat IPC: 0.579278 cumulative IPC: 0.557508 (Simulation time: 0 hr 16 min 57 sec) 
select_counter is 72
Heartbeat CPU 0 instructions: 38000001 cycles: 55786560 heartbeat IPC: 0.63371 cumulative IPC: 0.559913 (Simulation time: 0 hr 17 min 23 sec) 
select_counter is 760
Heartbeat CPU 0 instructions: 39000002 cycles: 57454307 heartbeat IPC: 0.599612 cumulative IPC: 0.561194 (Simulation time: 0 hr 17 min 50 sec) 
select_counter is 433
Heartbeat CPU 0 instructions: 40000000 cycles: 59072253 heartbeat IPC: 0.618066 cumulative IPC: 0.562921 (Simulation time: 0 hr 18 min 15 sec) 
select_counter is 176
Heartbeat CPU 0 instructions: 41000000 cycles: 60718637 heartbeat IPC: 0.607392 cumulative IPC: 0.564253 (Simulation time: 0 hr 18 min 44 sec) 
select_counter is 952
Heartbeat CPU 0 instructions: 42000002 cycles: 62333104 heartbeat IPC: 0.619401 cumulative IPC: 0.565828 (Simulation time: 0 hr 19 min 12 sec) 
select_counter is 703
Heartbeat CPU 0 instructions: 43000000 cycles: 63951074 heartbeat IPC: 0.618057 cumulative IPC: 0.56728 (Simulation time: 0 hr 19 min 39 sec) 
select_counter is 433
Heartbeat CPU 0 instructions: 44000000 cycles: 65500674 heartbeat IPC: 0.645328 cumulative IPC: 0.569305 (Simulation time: 0 hr 20 min 4 sec) 
select_counter is 55
Heartbeat CPU 0 instructions: 45000000 cycles: 66954645 heartbeat IPC: 0.687772 cumulative IPC: 0.572121 (Simulation time: 0 hr 20 min 27 sec) 
select_counter is 667
Heartbeat CPU 0 instructions: 46000002 cycles: 68426497 heartbeat IPC: 0.679417 cumulative IPC: 0.574642 (Simulation time: 0 hr 20 min 49 sec) 
select_counter is 267
Heartbeat CPU 0 instructions: 47000001 cycles: 69896857 heartbeat IPC: 0.680105 cumulative IPC: 0.57706 (Simulation time: 0 hr 21 min 13 sec) 
select_counter is 956
Heartbeat CPU 0 instructions: 48000000 cycles: 71359099 heartbeat IPC: 0.683881 cumulative IPC: 0.579442 (Simulation time: 0 hr 21 min 36 sec) 
select_counter is 685
Heartbeat CPU 0 instructions: 49000001 cycles: 72875737 heartbeat IPC: 0.659354 cumulative IPC: 0.581248 (Simulation time: 0 hr 22 min 2 sec) 
select_counter is 508
Heartbeat CPU 0 instructions: 50000002 cycles: 74383721 heartbeat IPC: 0.663138 cumulative IPC: 0.583048 (Simulation time: 0 hr 22 min 26 sec) 
select_counter is 388
Heartbeat CPU 0 instructions: 51000001 cycles: 75794760 heartbeat IPC: 0.708697 cumulative IPC: 0.585581 (Simulation time: 0 hr 22 min 49 sec) 
select_counter is 290
Heartbeat CPU 0 instructions: 52000000 cycles: 77322609 heartbeat IPC: 0.654514 cumulative IPC: 0.587053 (Simulation time: 0 hr 23 min 13 sec) 
select_counter is 29
Heartbeat CPU 0 instructions: 53000002 cycles: 78893881 heartbeat IPC: 0.636428 cumulative IPC: 0.588114 (Simulation time: 0 hr 23 min 39 sec) 
select_counter is 520
Heartbeat CPU 0 instructions: 54000001 cycles: 80516593 heartbeat IPC: 0.616252 cumulative IPC: 0.588725 (Simulation time: 0 hr 24 min 6 sec) 
select_counter is 961
Heartbeat CPU 0 instructions: 55000001 cycles: 82202179 heartbeat IPC: 0.593265 cumulative IPC: 0.588825 (Simulation time: 0 hr 24 min 34 sec) 
select_counter is 507
Heartbeat CPU 0 instructions: 56000000 cycles: 83932023 heartbeat IPC: 0.578086 cumulative IPC: 0.588587 (Simulation time: 0 hr 24 min 59 sec) 
select_counter is 191
Heartbeat CPU 0 instructions: 57000001 cycles: 85606637 heartbeat IPC: 0.597153 cumulative IPC: 0.588767 (Simulation time: 0 hr 25 min 26 sec) 
select_counter is 950
Heartbeat CPU 0 instructions: 58000003 cycles: 87279337 heartbeat IPC: 0.597837 cumulative IPC: 0.588953 (Simulation time: 0 hr 25 min 53 sec) 
select_counter is 610
Heartbeat CPU 0 instructions: 59000001 cycles: 89535234 heartbeat IPC: 0.443282 cumulative IPC: 0.58503 (Simulation time: 0 hr 26 min 25 sec) 
select_counter is 773
Heartbeat CPU 0 instructions: 60000000 cycles: 91499587 heartbeat IPC: 0.509073 cumulative IPC: 0.583289 (Simulation time: 0 hr 26 min 53 sec) 
select_counter is 491
Heartbeat CPU 0 instructions: 61000000 cycles: 94168441 heartbeat IPC: 0.374693 cumulative IPC: 0.576991 (Simulation time: 0 hr 27 min 23 sec) 
select_counter is 797
Heartbeat CPU 0 instructions: 62000000 cycles: 96444431 heartbeat IPC: 0.439369 cumulative IPC: 0.573536 (Simulation time: 0 hr 27 min 54 sec) 
select_counter is 475
Heartbeat CPU 0 instructions: 63000001 cycles: 98513127 heartbeat IPC: 0.483397 cumulative IPC: 0.571525 (Simulation time: 0 hr 28 min 23 sec) 
select_counter is 71
Heartbeat CPU 0 instructions: 64000000 cycles: 100643526 heartbeat IPC: 0.469395 cumulative IPC: 0.569232 (Simulation time: 0 hr 28 min 52 sec) 
select_counter is 399
Heartbeat CPU 0 instructions: 65000003 cycles: 102270119 heartbeat IPC: 0.614784 cumulative IPC: 0.569999 (Simulation time: 0 hr 29 min 21 sec) 
select_counter is 355
Heartbeat CPU 0 instructions: 66000000 cycles: 103895002 heartbeat IPC: 0.615427 cumulative IPC: 0.570752 (Simulation time: 0 hr 29 min 48 sec) 
select_counter is 310
Heartbeat CPU 0 instructions: 67000000 cycles: 105513578 heartbeat IPC: 0.617827 cumulative IPC: 0.571516 (Simulation time: 0 hr 30 min 16 sec) 
select_counter is 266
Heartbeat CPU 0 instructions: 68000000 cycles: 107152482 heartbeat IPC: 0.610164 cumulative IPC: 0.572141 (Simulation time: 0 hr 30 min 45 sec) 
select_counter is 216
Heartbeat CPU 0 instructions: 69000000 cycles: 108805147 heartbeat IPC: 0.605083 cumulative IPC: 0.572669 (Simulation time: 0 hr 31 min 13 sec) 
select_counter is 176
Heartbeat CPU 0 instructions: 70000001 cycles: 110448344 heartbeat IPC: 0.60857 cumulative IPC: 0.573233 (Simulation time: 0 hr 31 min 41 sec) 
select_counter is 137
Heartbeat CPU 0 instructions: 71000001 cycles: 112076759 heartbeat IPC: 0.614094 cumulative IPC: 0.573859 (Simulation time: 0 hr 32 min 9 sec) 
select_counter is 97
Heartbeat CPU 0 instructions: 72000000 cycles: 113709795 heartbeat IPC: 0.612356 cumulative IPC: 0.574441 (Simulation time: 0 hr 32 min 36 sec) 
select_counter is 61
Heartbeat CPU 0 instructions: 73000003 cycles: 115336616 heartbeat IPC: 0.614698 cumulative IPC: 0.575039 (Simulation time: 0 hr 33 min 9 sec) 
select_counter is 24
Heartbeat CPU 0 instructions: 74000000 cycles: 116968036 heartbeat IPC: 0.612961 cumulative IPC: 0.575595 (Simulation time: 0 hr 33 min 34 sec) 
select_counter is 1016
Heartbeat CPU 0 instructions: 75000001 cycles: 118610324 heartbeat IPC: 0.608907 cumulative IPC: 0.57608 (Simulation time: 0 hr 34 min 0 sec) 
select_counter is 978
Heartbeat CPU 0 instructions: 76000000 cycles: 120277399 heartbeat IPC: 0.599852 cumulative IPC: 0.576426 (Simulation time: 0 hr 34 min 28 sec) 
select_counter is 944
Heartbeat CPU 0 instructions: 77000003 cycles: 121925534 heartbeat IPC: 0.606748 cumulative IPC: 0.576856 (Simulation time: 0 hr 34 min 58 sec) 
select_counter is 912
Heartbeat CPU 0 instructions: 78000001 cycles: 123566152 heartbeat IPC: 0.609525 cumulative IPC: 0.577312 (Simulation time: 0 hr 35 min 20 sec) 
select_counter is 880
Heartbeat CPU 0 instructions: 79000000 cycles: 125217276 heartbeat IPC: 0.605647 cumulative IPC: 0.577703 (Simulation time: 0 hr 35 min 42 sec) 
select_counter is 838
Heartbeat CPU 0 instructions: 80000000 cycles: 126872852 heartbeat IPC: 0.604019 cumulative IPC: 0.578063 (Simulation time: 0 hr 36 min 4 sec) 
select_counter is 809
Heartbeat CPU 0 instructions: 81000001 cycles: 128516370 heartbeat IPC: 0.608451 cumulative IPC: 0.57847 (Simulation time: 0 hr 36 min 25 sec) 
select_counter is 769
Heartbeat CPU 0 instructions: 82000000 cycles: 130163626 heartbeat IPC: 0.60707 cumulative IPC: 0.578849 (Simulation time: 0 hr 36 min 45 sec) 
select_counter is 733
Heartbeat CPU 0 instructions: 83000000 cycles: 131814677 heartbeat IPC: 0.605675 cumulative IPC: 0.5792 (Simulation time: 0 hr 37 min 6 sec) 
select_counter is 704
Heartbeat CPU 0 instructions: 84000000 cycles: 133477290 heartbeat IPC: 0.601463 cumulative IPC: 0.57949 (Simulation time: 0 hr 37 min 25 sec) 
select_counter is 674
Heartbeat CPU 0 instructions: 85000000 cycles: 135137775 heartbeat IPC: 0.602234 cumulative IPC: 0.579782 (Simulation time: 0 hr 37 min 45 sec) 
select_counter is 637
Heartbeat CPU 0 instructions: 86000000 cycles: 136794679 heartbeat IPC: 0.603535 cumulative IPC: 0.580082 (Simulation time: 0 hr 38 min 3 sec) 
select_counter is 607
Heartbeat CPU 0 instructions: 87000000 cycles: 138452398 heartbeat IPC: 0.603239 cumulative IPC: 0.580372 (Simulation time: 0 hr 38 min 22 sec) 
select_counter is 571
Heartbeat CPU 0 instructions: 88000000 cycles: 140112628 heartbeat IPC: 0.602326 cumulative IPC: 0.580643 (Simulation time: 0 hr 38 min 38 sec) 
select_counter is 546
Heartbeat CPU 0 instructions: 89000002 cycles: 141775184 heartbeat IPC: 0.601485 cumulative IPC: 0.580898 (Simulation time: 0 hr 38 min 56 sec) 
select_counter is 506
Heartbeat CPU 0 instructions: 90000000 cycles: 143394485 heartbeat IPC: 0.617549 cumulative IPC: 0.581329 (Simulation time: 0 hr 39 min 13 sec) 
select_counter is 469
Heartbeat CPU 0 instructions: 91000000 cycles: 145028226 heartbeat IPC: 0.612092 cumulative IPC: 0.58169 (Simulation time: 0 hr 39 min 31 sec) 
select_counter is 441
Heartbeat CPU 0 instructions: 92000000 cycles: 146658197 heartbeat IPC: 0.613508 cumulative IPC: 0.582058 (Simulation time: 0 hr 39 min 49 sec) 
select_counter is 407
Heartbeat CPU 0 instructions: 93000000 cycles: 148285580 heartbeat IPC: 0.614483 cumulative IPC: 0.582428 (Simulation time: 0 hr 40 min 5 sec) 
select_counter is 377
Heartbeat CPU 0 instructions: 94000003 cycles: 149895757 heartbeat IPC: 0.621052 cumulative IPC: 0.58286 (Simulation time: 0 hr 40 min 20 sec) 
select_counter is 342
Heartbeat CPU 0 instructions: 95000000 cycles: 151533098 heartbeat IPC: 0.610744 cumulative IPC: 0.583173 (Simulation time: 0 hr 40 min 35 sec) 
select_counter is 300
Heartbeat CPU 0 instructions: 96000000 cycles: 153157042 heartbeat IPC: 0.615785 cumulative IPC: 0.583532 (Simulation time: 0 hr 40 min 50 sec) 
select_counter is 267
Heartbeat CPU 0 instructions: 97000001 cycles: 154806560 heartbeat IPC: 0.606238 cumulative IPC: 0.583784 (Simulation time: 0 hr 41 min 6 sec) 
select_counter is 237
Heartbeat CPU 0 instructions: 98000003 cycles: 156457999 heartbeat IPC: 0.605534 cumulative IPC: 0.584022 (Simulation time: 0 hr 41 min 21 sec) 
select_counter is 207
Heartbeat CPU 0 instructions: 99000000 cycles: 158098236 heartbeat IPC: 0.609666 cumulative IPC: 0.584298 (Simulation time: 0 hr 41 min 35 sec) 
select_counter is 164
Heartbeat CPU 0 instructions: 100000000 cycles: 159709365 heartbeat IPC: 0.620683 cumulative IPC: 0.584679 (Simulation time: 0 hr 41 min 50 sec) 
select_counter is 136
Heartbeat CPU 0 instructions: 101000000 cycles: 161326257 heartbeat IPC: 0.61847 cumulative IPC: 0.58503 (Simulation time: 0 hr 42 min 4 sec) 
select_counter is 105
Heartbeat CPU 0 instructions: 102000003 cycles: 162960547 heartbeat IPC: 0.611888 cumulative IPC: 0.58531 (Simulation time: 0 hr 42 min 18 sec) 
select_counter is 72
Heartbeat CPU 0 instructions: 103000000 cycles: 164591335 heartbeat IPC: 0.613199 cumulative IPC: 0.585596 (Simulation time: 0 hr 42 min 32 sec) 
select_counter is 35
Heartbeat CPU 0 instructions: 104000000 cycles: 166226938 heartbeat IPC: 0.611395 cumulative IPC: 0.585859 (Simulation time: 0 hr 42 min 45 sec) 
select_counter is 1019
Heartbeat CPU 0 instructions: 105000000 cycles: 167873779 heartbeat IPC: 0.607223 cumulative IPC: 0.586076 (Simulation time: 0 hr 42 min 57 sec) 
select_counter is 986
Heartbeat CPU 0 instructions: 106000000 cycles: 169523031 heartbeat IPC: 0.606335 cumulative IPC: 0.58628 (Simulation time: 0 hr 43 min 10 sec) 
select_counter is 952
Heartbeat CPU 0 instructions: 107000000 cycles: 171171012 heartbeat IPC: 0.606803 cumulative IPC: 0.586485 (Simulation time: 0 hr 43 min 21 sec) 
select_counter is 924
Heartbeat CPU 0 instructions: 108000000 cycles: 172823951 heartbeat IPC: 0.604983 cumulative IPC: 0.586668 (Simulation time: 0 hr 43 min 31 sec) 
select_counter is 887
Heartbeat CPU 0 instructions: 109000003 cycles: 174469049 heartbeat IPC: 0.607868 cumulative IPC: 0.586874 (Simulation time: 0 hr 43 min 41 sec) 
select_counter is 851
Heartbeat CPU 0 instructions: 110000001 cycles: 176095953 heartbeat IPC: 0.614663 cumulative IPC: 0.58714 (Simulation time: 0 hr 43 min 50 sec) 
select_counter is 812
Finished CPU 0 instructions: 100000000 cycles: 170317168 cummulative IPC: 0.58714 (Simulation time: 0 hr 43 min 50 sec) 

ChampSim completed all CPUs

Region of Interest Statistics

CPU 0 cummulative IPC: 0.58714 instructions: 100000000 cycles: 170317168
LLC TOTAL     ACCESS:    1490749  HIT:     447451  MISS:    1043298
LLC LOAD      ACCESS:     835381  HIT:     154153  MISS:     681228
LLC RFO       ACCESS:     219225  HIT:      26585  MISS:     192640
LLC PREFETCH  ACCESS:          0  HIT:          0  MISS:          0
LLC WRITEBACK ACCESS:     436143  HIT:     266713  MISS:     169430
Ship samples: 
2, 34, 78, 103, 135, 170, 199, 230, 258, 291, 333, 363, 388, 425, 455, 492, 526, 544, 582, 620, 651, 681, 716, 737, 768, 805, 842, 869, 901, 931, 972, 1002, 1029, 1070, 1101, 1121, 1162, 1186, 1226, 1252, 1289, 1322, 1346, 1388, 1412, 1449, 1484, 1506, 1540, 1575, 1600, 1638, 1665, 1710, 1739, 1774, 1795, 1826, 1864, 1895, 1934, 1959, 1992, 2017, 
Lime duel samples: 
3, 25, 43, 53, 66, 86, 110, 126, 138, 147, 160, 189, 202, 212, 226, 241, 264, 284, 290, 311, 329, 336, 364, 371, 398, 404, 418, 435, 454, 474, 488, 506, 513, 534, 557, 565, 576, 600, 610, 626, 641, 664, 686, 696, 709, 726, 738, 754, 776, 784, 800, 818, 836, 858, 871, 892, 897, 914, 934, 950, 967, 977, 998, 1013, 1035, 1052, 1066, 1083, 1089, 1116, 1123, 1136, 1158, 1179, 1189, 1201, 1230, 1246, 1260, 1275, 1281, 1308, 1312, 1330, 1358, 1369, 1386, 1406, 1416, 1426, 1454, 1456, 1478, 1497, 1517, 1524, 1542, 1554, 1574, 1591, 1601, 1619, 1632, 1659, 1673, 1688, 1697, 1713, 1728, 1756, 1760, 1777, 1793, 1816, 1835, 1841, 1856, 1878, 1888, 1910, 1922, 1943, 1957, 1968, 1986, 2008, 2029, 2043, 
Lime samples: 
3, 110, 202, 290, 398, 488, 576, 686, 776, 871, 967, 1066, 1158, 1260, 1358, 1454, 1542, 1632, 1728, 1835, 1922, 
Insertion Distribution: 
	LOAD 34758 0 0 0 0 0 69188 323408 
	RFO 26455 0 0 0 0 0 26902 72492 
	PREF 0 0 0 0 0 0 0 0 
	WRITEBACK 0 0 0 0 0 0 0 129022 
Total Prefetch Downgrades: 0
