
*** ChampSim Multicore Out-of-Order Simulator ***

Warmup Instructions: 10000000
Simulation Instructions: 100000000
Configuration: 1
Number of CPUs: 1
LLC sets: 2048
LLC ways: 16
Off-chip DRAM Channels: 1 Width: 64-bit Data Rate: 1600 MT/s

CPU 0 runs /datasets/cs240c-wi22-a00-public/data/Assignment2-gz/omnetpp_340B.trace.gz
Heartbeat CPU 0 instructions: 1000001 cycles: 578280 heartbeat IPC: 1.72927 cumulative IPC: 1.72927 (Simulation time: 0 hr 0 min 27 sec) 
select_counter is 761
Heartbeat CPU 0 instructions: 2000000 cycles: 1162468 heartbeat IPC: 1.71178 cumulative IPC: 1.72048 (Simulation time: 0 hr 0 min 55 sec) 
select_counter is 388
Heartbeat CPU 0 instructions: 3000001 cycles: 1760240 heartbeat IPC: 1.67288 cumulative IPC: 1.70431 (Simulation time: 0 hr 1 min 23 sec) 
select_counter is 992
Heartbeat CPU 0 instructions: 4000000 cycles: 2381542 heartbeat IPC: 1.60952 cumulative IPC: 1.67958 (Simulation time: 0 hr 1 min 51 sec) 
select_counter is 822
Heartbeat CPU 0 instructions: 5000002 cycles: 2957084 heartbeat IPC: 1.7375 cumulative IPC: 1.69086 (Simulation time: 0 hr 2 min 18 sec) 
select_counter is 450
Heartbeat CPU 0 instructions: 6000003 cycles: 3559487 heartbeat IPC: 1.66002 cumulative IPC: 1.68564 (Simulation time: 0 hr 2 min 47 sec) 
select_counter is 876
Heartbeat CPU 0 instructions: 7000003 cycles: 4209643 heartbeat IPC: 1.53809 cumulative IPC: 1.66285 (Simulation time: 0 hr 3 min 16 sec) 
select_counter is 467
Heartbeat CPU 0 instructions: 8000000 cycles: 4805257 heartbeat IPC: 1.67893 cumulative IPC: 1.66484 (Simulation time: 0 hr 3 min 43 sec) 
select_counter is 163
Heartbeat CPU 0 instructions: 9000002 cycles: 5438714 heartbeat IPC: 1.57864 cumulative IPC: 1.6548 (Simulation time: 0 hr 4 min 9 sec) 
select_counter is 845
Heartbeat CPU 0 instructions: 10000002 cycles: 6034746 heartbeat IPC: 1.67776 cumulative IPC: 1.65707 (Simulation time: 0 hr 4 min 35 sec) 
select_counter is 308

Warmup complete CPU 0 instructions: 10000002 cycles: 6034746 (Simulation time: 0 hr 4 min 35 sec) 

Heartbeat CPU 0 instructions: 11000000 cycles: 10042301 heartbeat IPC: 0.249528 cumulative IPC: 0.249528 (Simulation time: 0 hr 5 min 9 sec) 
select_counter is 976
Heartbeat CPU 0 instructions: 12000000 cycles: 13806217 heartbeat IPC: 0.265681 cumulative IPC: 0.257351 (Simulation time: 0 hr 5 min 41 sec) 
select_counter is 526
Heartbeat CPU 0 instructions: 13000000 cycles: 18001570 heartbeat IPC: 0.238359 cumulative IPC: 0.250693 (Simulation time: 0 hr 6 min 14 sec) 
select_counter is 997
Heartbeat CPU 0 instructions: 14000001 cycles: 22092703 heartbeat IPC: 0.244431 cumulative IPC: 0.249098 (Simulation time: 0 hr 6 min 46 sec) 
select_counter is 508
Heartbeat CPU 0 instructions: 15000003 cycles: 26513555 heartbeat IPC: 0.226201 cumulative IPC: 0.244155 (Simulation time: 0 hr 7 min 22 sec) 
select_counter is 598
Heartbeat CPU 0 instructions: 16000000 cycles: 31057357 heartbeat IPC: 0.220079 cumulative IPC: 0.239783 (Simulation time: 0 hr 8 min 0 sec) 
select_counter is 918
Heartbeat CPU 0 instructions: 17000000 cycles: 35214004 heartbeat IPC: 0.240579 cumulative IPC: 0.239896 (Simulation time: 0 hr 8 min 34 sec) 
select_counter is 487
Heartbeat CPU 0 instructions: 18000000 cycles: 39435685 heartbeat IPC: 0.236872 cumulative IPC: 0.239514 (Simulation time: 0 hr 9 min 11 sec) 
select_counter is 17
Heartbeat CPU 0 instructions: 19000000 cycles: 43811448 heartbeat IPC: 0.228532 cumulative IPC: 0.238242 (Simulation time: 0 hr 9 min 45 sec) 
select_counter is 510
Heartbeat CPU 0 instructions: 20000000 cycles: 48349358 heartbeat IPC: 0.220366 cumulative IPC: 0.236325 (Simulation time: 0 hr 10 min 22 sec) 
select_counter is 901
Heartbeat CPU 0 instructions: 21000000 cycles: 52070345 heartbeat IPC: 0.268746 cumulative IPC: 0.238945 (Simulation time: 0 hr 10 min 55 sec) 
select_counter is 531
Heartbeat CPU 0 instructions: 22000001 cycles: 56245213 heartbeat IPC: 0.239529 cumulative IPC: 0.238994 (Simulation time: 0 hr 11 min 31 sec) 
select_counter is 158
Heartbeat CPU 0 instructions: 23000001 cycles: 60358781 heartbeat IPC: 0.243098 cumulative IPC: 0.239305 (Simulation time: 0 hr 12 min 4 sec) 
select_counter is 853
Heartbeat CPU 0 instructions: 24000000 cycles: 64460423 heartbeat IPC: 0.243805 cumulative IPC: 0.239621 (Simulation time: 0 hr 12 min 37 sec) 
select_counter is 413
Heartbeat CPU 0 instructions: 25000000 cycles: 68640272 heartbeat IPC: 0.239243 cumulative IPC: 0.239595 (Simulation time: 0 hr 13 min 14 sec) 
select_counter is 982
Heartbeat CPU 0 instructions: 26000001 cycles: 73004461 heartbeat IPC: 0.229138 cumulative IPC: 0.238914 (Simulation time: 0 hr 13 min 53 sec) 
select_counter is 433
Heartbeat CPU 0 instructions: 27000000 cycles: 77419296 heartbeat IPC: 0.226509 cumulative IPC: 0.238147 (Simulation time: 0 hr 14 min 30 sec) 
select_counter is 800
Heartbeat CPU 0 instructions: 28000000 cycles: 81900410 heartbeat IPC: 0.223159 cumulative IPC: 0.237261 (Simulation time: 0 hr 15 min 10 sec) 
select_counter is 829
Heartbeat CPU 0 instructions: 29000000 cycles: 86255222 heartbeat IPC: 0.229631 cumulative IPC: 0.236847 (Simulation time: 0 hr 15 min 46 sec) 
select_counter is 202
Heartbeat CPU 0 instructions: 30000000 cycles: 90157442 heartbeat IPC: 0.256264 cumulative IPC: 0.237748 (Simulation time: 0 hr 16 min 19 sec) 
select_counter is 923
Heartbeat CPU 0 instructions: 31000000 cycles: 94309685 heartbeat IPC: 0.240834 cumulative IPC: 0.237893 (Simulation time: 0 hr 16 min 53 sec) 
select_counter is 371
Heartbeat CPU 0 instructions: 32000000 cycles: 98320821 heartbeat IPC: 0.249306 cumulative IPC: 0.238389 (Simulation time: 0 hr 17 min 29 sec) 
select_counter is 999
Heartbeat CPU 0 instructions: 33000003 cycles: 102351483 heartbeat IPC: 0.248099 cumulative IPC: 0.238795 (Simulation time: 0 hr 18 min 6 sec) 
select_counter is 519
Heartbeat CPU 0 instructions: 34000001 cycles: 106822783 heartbeat IPC: 0.223648 cumulative IPC: 0.238123 (Simulation time: 0 hr 18 min 44 sec) 
select_counter is 986
Heartbeat CPU 0 instructions: 35000002 cycles: 110719205 heartbeat IPC: 0.256646 cumulative IPC: 0.238813 (Simulation time: 0 hr 19 min 20 sec) 
select_counter is 618
Heartbeat CPU 0 instructions: 36000000 cycles: 115322785 heartbeat IPC: 0.217222 cumulative IPC: 0.237903 (Simulation time: 0 hr 19 min 54 sec) 
select_counter is 983
Heartbeat CPU 0 instructions: 37000000 cycles: 120116925 heartbeat IPC: 0.208588 cumulative IPC: 0.236671 (Simulation time: 0 hr 20 min 29 sec) 
select_counter is 210
Heartbeat CPU 0 instructions: 38000000 cycles: 124266524 heartbeat IPC: 0.240987 cumulative IPC: 0.236823 (Simulation time: 0 hr 21 min 4 sec) 
select_counter is 543
Heartbeat CPU 0 instructions: 39000001 cycles: 128802716 heartbeat IPC: 0.220449 cumulative IPC: 0.236218 (Simulation time: 0 hr 21 min 39 sec) 
select_counter is 904
Heartbeat CPU 0 instructions: 40000000 cycles: 132640166 heartbeat IPC: 0.260589 cumulative IPC: 0.236957 (Simulation time: 0 hr 22 min 14 sec) 
select_counter is 426
Heartbeat CPU 0 instructions: 41000000 cycles: 136518352 heartbeat IPC: 0.257853 cumulative IPC: 0.237578 (Simulation time: 0 hr 22 min 47 sec) 
select_counter is 973
Heartbeat CPU 0 instructions: 42000001 cycles: 141093948 heartbeat IPC: 0.218551 cumulative IPC: 0.236933 (Simulation time: 0 hr 23 min 21 sec) 
select_counter is 442
Heartbeat CPU 0 instructions: 43000001 cycles: 145707103 heartbeat IPC: 0.216771 cumulative IPC: 0.236267 (Simulation time: 0 hr 23 min 55 sec) 
select_counter is 670
Heartbeat CPU 0 instructions: 44000000 cycles: 149817162 heartbeat IPC: 0.243305 cumulative IPC: 0.236468 (Simulation time: 0 hr 24 min 29 sec) 
select_counter is 51
Heartbeat CPU 0 instructions: 45000003 cycles: 153996104 heartbeat IPC: 0.239296 cumulative IPC: 0.236548 (Simulation time: 0 hr 25 min 1 sec) 
select_counter is 532
Heartbeat CPU 0 instructions: 46000003 cycles: 158324793 heartbeat IPC: 0.231017 cumulative IPC: 0.236391 (Simulation time: 0 hr 25 min 32 sec) 
select_counter is 209
Heartbeat CPU 0 instructions: 47000000 cycles: 161690037 heartbeat IPC: 0.297154 cumulative IPC: 0.237705 (Simulation time: 0 hr 26 min 3 sec) 
select_counter is 1021
Heartbeat CPU 0 instructions: 48000000 cycles: 166061278 heartbeat IPC: 0.228768 cumulative IPC: 0.237461 (Simulation time: 0 hr 26 min 37 sec) 
select_counter is 763
Heartbeat CPU 0 instructions: 49000000 cycles: 169255718 heartbeat IPC: 0.313044 cumulative IPC: 0.23894 (Simulation time: 0 hr 27 min 7 sec) 
select_counter is 606
Heartbeat CPU 0 instructions: 50000001 cycles: 173635902 heartbeat IPC: 0.228301 cumulative IPC: 0.238662 (Simulation time: 0 hr 27 min 40 sec) 
select_counter is 284
Heartbeat CPU 0 instructions: 51000003 cycles: 177770822 heartbeat IPC: 0.241843 cumulative IPC: 0.238738 (Simulation time: 0 hr 28 min 17 sec) 
select_counter is 817
Heartbeat CPU 0 instructions: 52000000 cycles: 182180320 heartbeat IPC: 0.226783 cumulative IPC: 0.238439 (Simulation time: 0 hr 28 min 58 sec) 
select_counter is 234
Heartbeat CPU 0 instructions: 53000000 cycles: 187142202 heartbeat IPC: 0.201536 cumulative IPC: 0.237428 (Simulation time: 0 hr 29 min 34 sec) 
select_counter is 517
Heartbeat CPU 0 instructions: 54000002 cycles: 191650090 heartbeat IPC: 0.221834 cumulative IPC: 0.237049 (Simulation time: 0 hr 30 min 7 sec) 
select_counter is 851
Heartbeat CPU 0 instructions: 55000001 cycles: 195945990 heartbeat IPC: 0.23278 cumulative IPC: 0.236953 (Simulation time: 0 hr 30 min 42 sec) 
select_counter is 245
Heartbeat CPU 0 instructions: 56000000 cycles: 200625016 heartbeat IPC: 0.213719 cumulative IPC: 0.236394 (Simulation time: 0 hr 31 min 16 sec) 
select_counter is 619
Heartbeat CPU 0 instructions: 57000001 cycles: 205005331 heartbeat IPC: 0.228294 cumulative IPC: 0.236216 (Simulation time: 0 hr 31 min 48 sec) 
select_counter is 143
Heartbeat CPU 0 instructions: 58000000 cycles: 208656560 heartbeat IPC: 0.27388 cumulative IPC: 0.236895 (Simulation time: 0 hr 32 min 18 sec) 
select_counter is 821
Heartbeat CPU 0 instructions: 59000003 cycles: 213013857 heartbeat IPC: 0.229501 cumulative IPC: 0.236739 (Simulation time: 0 hr 32 min 52 sec) 
select_counter is 148
Heartbeat CPU 0 instructions: 60000000 cycles: 217842867 heartbeat IPC: 0.207081 cumulative IPC: 0.236063 (Simulation time: 0 hr 33 min 28 sec) 
select_counter is 346
Heartbeat CPU 0 instructions: 61000001 cycles: 222741027 heartbeat IPC: 0.204158 cumulative IPC: 0.235342 (Simulation time: 0 hr 34 min 1 sec) 
select_counter is 567
Heartbeat CPU 0 instructions: 62000000 cycles: 227706610 heartbeat IPC: 0.201386 cumulative IPC: 0.234581 (Simulation time: 0 hr 34 min 37 sec) 
select_counter is 631
Heartbeat CPU 0 instructions: 63000001 cycles: 231911030 heartbeat IPC: 0.237845 cumulative IPC: 0.234642 (Simulation time: 0 hr 35 min 8 sec) 
select_counter is 801
Heartbeat CPU 0 instructions: 64000000 cycles: 236101874 heartbeat IPC: 0.238615 cumulative IPC: 0.234714 (Simulation time: 0 hr 35 min 36 sec) 
select_counter is 178
Heartbeat CPU 0 instructions: 65000001 cycles: 239977256 heartbeat IPC: 0.258039 cumulative IPC: 0.2351 (Simulation time: 0 hr 36 min 5 sec) 
select_counter is 747
Heartbeat CPU 0 instructions: 66000002 cycles: 244259960 heartbeat IPC: 0.233498 cumulative IPC: 0.235072 (Simulation time: 0 hr 36 min 31 sec) 
select_counter is 553
Heartbeat CPU 0 instructions: 67000002 cycles: 248395161 heartbeat IPC: 0.241826 cumulative IPC: 0.235187 (Simulation time: 0 hr 36 min 56 sec) 
select_counter is 90
Heartbeat CPU 0 instructions: 68000000 cycles: 252543459 heartbeat IPC: 0.241062 cumulative IPC: 0.235286 (Simulation time: 0 hr 37 min 20 sec) 
select_counter is 735
Heartbeat CPU 0 instructions: 69000000 cycles: 256691797 heartbeat IPC: 0.24106 cumulative IPC: 0.235381 (Simulation time: 0 hr 37 min 45 sec) 
select_counter is 568
Heartbeat CPU 0 instructions: 70000001 cycles: 260319494 heartbeat IPC: 0.275657 cumulative IPC: 0.235956 (Simulation time: 0 hr 38 min 6 sec) 
select_counter is 420
Heartbeat CPU 0 instructions: 71000003 cycles: 264492060 heartbeat IPC: 0.239661 cumulative IPC: 0.236016 (Simulation time: 0 hr 38 min 29 sec) 
select_counter is 923
Heartbeat CPU 0 instructions: 72000000 cycles: 269302238 heartbeat IPC: 0.207892 cumulative IPC: 0.235502 (Simulation time: 0 hr 38 min 52 sec) 
select_counter is 116
Heartbeat CPU 0 instructions: 73000002 cycles: 273641062 heartbeat IPC: 0.230478 cumulative IPC: 0.23542 (Simulation time: 0 hr 39 min 13 sec) 
select_counter is 789
Heartbeat CPU 0 instructions: 74000000 cycles: 277717477 heartbeat IPC: 0.245313 cumulative IPC: 0.235569 (Simulation time: 0 hr 39 min 34 sec) 
select_counter is 501
Heartbeat CPU 0 instructions: 75000003 cycles: 282158580 heartbeat IPC: 0.22517 cumulative IPC: 0.235402 (Simulation time: 0 hr 39 min 57 sec) 
select_counter is 954
Heartbeat CPU 0 instructions: 76000000 cycles: 286419635 heartbeat IPC: 0.234683 cumulative IPC: 0.235391 (Simulation time: 0 hr 40 min 18 sec) 
select_counter is 285
Heartbeat CPU 0 instructions: 77000002 cycles: 291537688 heartbeat IPC: 0.195387 cumulative IPC: 0.234674 (Simulation time: 0 hr 40 min 38 sec) 
select_counter is 375
Heartbeat CPU 0 instructions: 78000003 cycles: 295769821 heartbeat IPC: 0.236288 cumulative IPC: 0.234697 (Simulation time: 0 hr 40 min 56 sec) 
select_counter is 666
Heartbeat CPU 0 instructions: 79000002 cycles: 299996316 heartbeat IPC: 0.236602 cumulative IPC: 0.234725 (Simulation time: 0 hr 41 min 14 sec) 
select_counter is 131
Heartbeat CPU 0 instructions: 80000000 cycles: 304254527 heartbeat IPC: 0.23484 cumulative IPC: 0.234726 (Simulation time: 0 hr 41 min 33 sec) 
select_counter is 739
Heartbeat CPU 0 instructions: 81000002 cycles: 308801103 heartbeat IPC: 0.219946 cumulative IPC: 0.234504 (Simulation time: 0 hr 41 min 53 sec) 
select_counter is 131
Heartbeat CPU 0 instructions: 82000000 cycles: 313477171 heartbeat IPC: 0.213854 cumulative IPC: 0.23419 (Simulation time: 0 hr 42 min 12 sec) 
select_counter is 568
Heartbeat CPU 0 instructions: 83000002 cycles: 317577585 heartbeat IPC: 0.243878 cumulative IPC: 0.234318 (Simulation time: 0 hr 42 min 29 sec) 
select_counter is 136
Heartbeat CPU 0 instructions: 84000000 cycles: 321960403 heartbeat IPC: 0.228163 cumulative IPC: 0.234232 (Simulation time: 0 hr 42 min 45 sec) 
select_counter is 699
Heartbeat CPU 0 instructions: 85000000 cycles: 325908697 heartbeat IPC: 0.253274 cumulative IPC: 0.234467 (Simulation time: 0 hr 43 min 0 sec) 
select_counter is 413
Heartbeat CPU 0 instructions: 86000000 cycles: 330076624 heartbeat IPC: 0.239927 cumulative IPC: 0.234538 (Simulation time: 0 hr 43 min 15 sec) 
select_counter is 30
Heartbeat CPU 0 instructions: 87000001 cycles: 334234612 heartbeat IPC: 0.240501 cumulative IPC: 0.234613 (Simulation time: 0 hr 43 min 28 sec) 
select_counter is 609
Heartbeat CPU 0 instructions: 88000000 cycles: 338328843 heartbeat IPC: 0.244246 cumulative IPC: 0.234732 (Simulation time: 0 hr 43 min 40 sec) 
select_counter is 338
Heartbeat CPU 0 instructions: 89000003 cycles: 342071876 heartbeat IPC: 0.267164 cumulative IPC: 0.235093 (Simulation time: 0 hr 43 min 50 sec) 
select_counter is 70
Heartbeat CPU 0 instructions: 90000000 cycles: 346173145 heartbeat IPC: 0.243826 cumulative IPC: 0.235198 (Simulation time: 0 hr 44 min 0 sec) 
select_counter is 743
Heartbeat CPU 0 instructions: 91000001 cycles: 349749152 heartbeat IPC: 0.279642 cumulative IPC: 0.235661 (Simulation time: 0 hr 44 min 10 sec) 
select_counter is 542
Heartbeat CPU 0 instructions: 92000000 cycles: 354133898 heartbeat IPC: 0.228063 cumulative IPC: 0.235565 (Simulation time: 0 hr 44 min 21 sec) 
select_counter is 83
Heartbeat CPU 0 instructions: 93000001 cycles: 358989205 heartbeat IPC: 0.20596 cumulative IPC: 0.235158 (Simulation time: 0 hr 44 min 30 sec) 
select_counter is 297
Heartbeat CPU 0 instructions: 94000001 cycles: 363160399 heartbeat IPC: 0.23974 cumulative IPC: 0.235211 (Simulation time: 0 hr 44 min 38 sec) 
select_counter is 721
Heartbeat CPU 0 instructions: 95000000 cycles: 367555598 heartbeat IPC: 0.227521 cumulative IPC: 0.235118 (Simulation time: 0 hr 44 min 46 sec) 
select_counter is 31
Heartbeat CPU 0 instructions: 96000000 cycles: 372407835 heartbeat IPC: 0.206091 cumulative IPC: 0.234733 (Simulation time: 0 hr 44 min 53 sec) 
select_counter is 449
Heartbeat CPU 0 instructions: 97000000 cycles: 376461168 heartbeat IPC: 0.246711 cumulative IPC: 0.234864 (Simulation time: 0 hr 44 min 59 sec) 
select_counter is 143
Heartbeat CPU 0 instructions: 98000000 cycles: 381132704 heartbeat IPC: 0.214062 cumulative IPC: 0.234605 (Simulation time: 0 hr 45 min 6 sec) 
select_counter is 560
Heartbeat CPU 0 instructions: 99000000 cycles: 386036407 heartbeat IPC: 0.203928 cumulative IPC: 0.234209 (Simulation time: 0 hr 45 min 11 sec) 
select_counter is 795
Heartbeat CPU 0 instructions: 100000000 cycles: 390576168 heartbeat IPC: 0.220276 cumulative IPC: 0.234045 (Simulation time: 0 hr 45 min 16 sec) 
select_counter is 283
Heartbeat CPU 0 instructions: 101000000 cycles: 394948550 heartbeat IPC: 0.228708 cumulative IPC: 0.233985 (Simulation time: 0 hr 45 min 21 sec) 
select_counter is 786
Heartbeat CPU 0 instructions: 102000003 cycles: 399354497 heartbeat IPC: 0.226967 cumulative IPC: 0.233906 (Simulation time: 0 hr 45 min 26 sec) 
select_counter is 426
Heartbeat CPU 0 instructions: 103000000 cycles: 403550800 heartbeat IPC: 0.238304 cumulative IPC: 0.233953 (Simulation time: 0 hr 45 min 31 sec) 
select_counter is 940
Heartbeat CPU 0 instructions: 104000000 cycles: 407645605 heartbeat IPC: 0.244212 cumulative IPC: 0.234057 (Simulation time: 0 hr 45 min 36 sec) 
select_counter is 643
Heartbeat CPU 0 instructions: 105000003 cycles: 411838553 heartbeat IPC: 0.238496 cumulative IPC: 0.234103 (Simulation time: 0 hr 45 min 40 sec) 
select_counter is 319
Heartbeat CPU 0 instructions: 106000001 cycles: 415633812 heartbeat IPC: 0.263486 cumulative IPC: 0.234376 (Simulation time: 0 hr 45 min 43 sec) 
select_counter is 949
Heartbeat CPU 0 instructions: 107000000 cycles: 420155293 heartbeat IPC: 0.221166 cumulative IPC: 0.234231 (Simulation time: 0 hr 45 min 48 sec) 
select_counter is 165
Heartbeat CPU 0 instructions: 108000000 cycles: 424518899 heartbeat IPC: 0.229168 cumulative IPC: 0.234179 (Simulation time: 0 hr 45 min 52 sec) 
select_counter is 333
Heartbeat CPU 0 instructions: 109000000 cycles: 429404213 heartbeat IPC: 0.204695 cumulative IPC: 0.233838 (Simulation time: 0 hr 45 min 57 sec) 
select_counter is 554
Heartbeat CPU 0 instructions: 110000000 cycles: 433455837 heartbeat IPC: 0.246815 cumulative IPC: 0.233961 (Simulation time: 0 hr 46 min 1 sec) 
select_counter is 222
Finished CPU 0 instructions: 100000000 cycles: 427421095 cummulative IPC: 0.233961 (Simulation time: 0 hr 46 min 1 sec) 

ChampSim completed all CPUs

Region of Interest Statistics

CPU 0 cummulative IPC: 0.233961 instructions: 100000000 cycles: 427421095
LLC TOTAL     ACCESS:    3244340  HIT:    1297352  MISS:    1946988
LLC LOAD      ACCESS:    1933068  HIT:     485171  MISS:    1447897
LLC RFO       ACCESS:     328266  HIT:      87835  MISS:     240431
LLC PREFETCH  ACCESS:          0  HIT:          0  MISS:          0
LLC WRITEBACK ACCESS:     983006  HIT:     724346  MISS:     258660
Ship samples: 
14, 45, 70, 109, 130, 173, 192, 234, 265, 297, 328, 355, 393, 421, 452, 491, 522, 550, 577, 608, 654, 683, 717, 750, 774, 802, 843, 866, 905, 928, 964, 1004, 1028, 1060, 1090, 1133, 1166, 1198, 1224, 1250, 1281, 1318, 1352, 1377, 1416, 1449, 1483, 1516, 1538, 1579, 1600, 1644, 1675, 1707, 1738, 1772, 1805, 1826, 1863, 1891, 1925, 1955, 1989, 2024, 
Lime duel samples: 
7, 26, 37, 62, 76, 81, 105, 122, 136, 144, 165, 179, 199, 219, 231, 241, 261, 276, 296, 311, 321, 336, 365, 375, 391, 406, 422, 434, 449, 464, 489, 507, 517, 541, 555, 562, 585, 600, 617, 625, 642, 668, 680, 701, 715, 733, 745, 766, 781, 791, 800, 821, 834, 850, 868, 892, 910, 915, 935, 958, 973, 982, 995, 1019, 1034, 1050, 1065, 1079, 1094, 1106, 1126, 1143, 1162, 1177, 1187, 1205, 1230, 1239, 1257, 1268, 1285, 1304, 1320, 1335, 1344, 1368, 1384, 1399, 1415, 1428, 1447, 1468, 1481, 1495, 1510, 1522, 1549, 1556, 1568, 1584, 1612, 1629, 1640, 1656, 1668, 1692, 1704, 1726, 1731, 1751, 1773, 1782, 1802, 1813, 1829, 1843, 1859, 1886, 1900, 1911, 1928, 1944, 1952, 1975, 1991, 2005, 2023, 2043, 
Lime samples: 
7, 105, 199, 296, 391, 489, 585, 680, 781, 868, 973, 1065, 1162, 1257, 1344, 1447, 1549, 1640, 1731, 1829, 1928, 
Insertion Distribution: 
	LOAD 78021 0 0 0 0 0 100069 587610 
	RFO 29981 0 0 0 0 0 40396 56563 
	PREF 0 0 0 0 0 0 0 0 
	WRITEBACK 0 0 0 0 0 0 0 175964 
Total Prefetch Downgrades: 0
