
*** ChampSim Multicore Out-of-Order Simulator ***

Warmup Instructions: 10000000
Simulation Instructions: 100000000
Configuration: 1
Number of CPUs: 1
LLC sets: 2048
LLC ways: 16
Off-chip DRAM Channels: 1 Width: 64-bit Data Rate: 1600 MT/s

CPU 0 runs /datasets/cs240c-wi22-a00-public/data/Assignment2-gz/perlbench_105B.trace.gz
Heartbeat CPU 0 instructions: 1000000 cycles: 578082 heartbeat IPC: 1.72986 cumulative IPC: 1.72986 (Simulation time: 0 hr 0 min 24 sec) 
select_counter is 490
Heartbeat CPU 0 instructions: 2000001 cycles: 1164382 heartbeat IPC: 1.70561 cumulative IPC: 1.71765 (Simulation time: 0 hr 0 min 47 sec) 
select_counter is 490
Heartbeat CPU 0 instructions: 3000001 cycles: 1726618 heartbeat IPC: 1.77861 cumulative IPC: 1.7375 (Simulation time: 0 hr 1 min 11 sec) 
select_counter is 490
Heartbeat CPU 0 instructions: 4000000 cycles: 2306048 heartbeat IPC: 1.72583 cumulative IPC: 1.73457 (Simulation time: 0 hr 1 min 34 sec) 
select_counter is 489
Heartbeat CPU 0 instructions: 5000003 cycles: 2884306 heartbeat IPC: 1.72934 cumulative IPC: 1.73352 (Simulation time: 0 hr 1 min 59 sec) 
select_counter is 489
Heartbeat CPU 0 instructions: 6000003 cycles: 3447554 heartbeat IPC: 1.77542 cumulative IPC: 1.74037 (Simulation time: 0 hr 2 min 24 sec) 
select_counter is 489
Heartbeat CPU 0 instructions: 7000000 cycles: 4020020 heartbeat IPC: 1.74682 cumulative IPC: 1.74128 (Simulation time: 0 hr 2 min 47 sec) 
select_counter is 489
Heartbeat CPU 0 instructions: 8000000 cycles: 4598072 heartbeat IPC: 1.72995 cumulative IPC: 1.73986 (Simulation time: 0 hr 3 min 10 sec) 
select_counter is 487
Heartbeat CPU 0 instructions: 9000000 cycles: 5176585 heartbeat IPC: 1.72857 cumulative IPC: 1.7386 (Simulation time: 0 hr 3 min 34 sec) 
select_counter is 487
Heartbeat CPU 0 instructions: 10000002 cycles: 5745502 heartbeat IPC: 1.75773 cumulative IPC: 1.74049 (Simulation time: 0 hr 3 min 58 sec) 
select_counter is 487

Warmup complete CPU 0 instructions: 10000002 cycles: 5745502 (Simulation time: 0 hr 3 min 58 sec) 

Heartbeat CPU 0 instructions: 11000002 cycles: 8081106 heartbeat IPC: 0.428155 cumulative IPC: 0.428155 (Simulation time: 0 hr 4 min 36 sec) 
select_counter is 485
Heartbeat CPU 0 instructions: 12000000 cycles: 10438017 heartbeat IPC: 0.424283 cumulative IPC: 0.42621 (Simulation time: 0 hr 5 min 14 sec) 
select_counter is 484
Heartbeat CPU 0 instructions: 13000000 cycles: 12869050 heartbeat IPC: 0.411348 cumulative IPC: 0.421138 (Simulation time: 0 hr 5 min 49 sec) 
select_counter is 484
Heartbeat CPU 0 instructions: 14000000 cycles: 15248301 heartbeat IPC: 0.4203 cumulative IPC: 0.420928 (Simulation time: 0 hr 6 min 22 sec) 
select_counter is 483
Heartbeat CPU 0 instructions: 15000000 cycles: 17600078 heartbeat IPC: 0.42521 cumulative IPC: 0.421778 (Simulation time: 0 hr 6 min 56 sec) 
select_counter is 484
Heartbeat CPU 0 instructions: 16000000 cycles: 19981281 heartbeat IPC: 0.419956 cumulative IPC: 0.421473 (Simulation time: 0 hr 7 min 29 sec) 
select_counter is 483
Heartbeat CPU 0 instructions: 17000003 cycles: 22373682 heartbeat IPC: 0.417991 cumulative IPC: 0.420972 (Simulation time: 0 hr 8 min 2 sec) 
select_counter is 483
Heartbeat CPU 0 instructions: 18000000 cycles: 24619747 heartbeat IPC: 0.445222 cumulative IPC: 0.423858 (Simulation time: 0 hr 8 min 34 sec) 
select_counter is 478
Heartbeat CPU 0 instructions: 19000000 cycles: 27124627 heartbeat IPC: 0.399221 cumulative IPC: 0.420971 (Simulation time: 0 hr 9 min 5 sec) 
select_counter is 478
Heartbeat CPU 0 instructions: 20000000 cycles: 29628077 heartbeat IPC: 0.399449 cumulative IPC: 0.418715 (Simulation time: 0 hr 9 min 39 sec) 
select_counter is 478
Heartbeat CPU 0 instructions: 21000001 cycles: 32129580 heartbeat IPC: 0.39976 cumulative IPC: 0.416918 (Simulation time: 0 hr 10 min 12 sec) 
select_counter is 478
Heartbeat CPU 0 instructions: 22000001 cycles: 34625401 heartbeat IPC: 0.40067 cumulative IPC: 0.415514 (Simulation time: 0 hr 10 min 45 sec) 
select_counter is 478
Heartbeat CPU 0 instructions: 23000000 cycles: 37117290 heartbeat IPC: 0.401302 cumulative IPC: 0.414385 (Simulation time: 0 hr 11 min 24 sec) 
select_counter is 478
Heartbeat CPU 0 instructions: 24000000 cycles: 39600177 heartbeat IPC: 0.402757 cumulative IPC: 0.413532 (Simulation time: 0 hr 11 min 59 sec) 
select_counter is 478
Heartbeat CPU 0 instructions: 25000001 cycles: 42062761 heartbeat IPC: 0.406078 cumulative IPC: 0.413027 (Simulation time: 0 hr 12 min 35 sec) 
select_counter is 478
Heartbeat CPU 0 instructions: 26000001 cycles: 44336977 heartbeat IPC: 0.439712 cumulative IPC: 0.414599 (Simulation time: 0 hr 13 min 13 sec) 
select_counter is 477
Heartbeat CPU 0 instructions: 27000003 cycles: 46831807 heartbeat IPC: 0.40083 cumulative IPC: 0.413763 (Simulation time: 0 hr 13 min 48 sec) 
select_counter is 477
Heartbeat CPU 0 instructions: 28000000 cycles: 49335093 heartbeat IPC: 0.399474 cumulative IPC: 0.412943 (Simulation time: 0 hr 14 min 22 sec) 
select_counter is 477
Heartbeat CPU 0 instructions: 29000001 cycles: 51836754 heartbeat IPC: 0.399735 cumulative IPC: 0.412226 (Simulation time: 0 hr 14 min 57 sec) 
select_counter is 477
Heartbeat CPU 0 instructions: 30000001 cycles: 54334158 heartbeat IPC: 0.400416 cumulative IPC: 0.411619 (Simulation time: 0 hr 15 min 33 sec) 
select_counter is 477
Heartbeat CPU 0 instructions: 31000000 cycles: 56825974 heartbeat IPC: 0.401313 cumulative IPC: 0.411116 (Simulation time: 0 hr 16 min 8 sec) 
select_counter is 477
Heartbeat CPU 0 instructions: 32000000 cycles: 59311101 heartbeat IPC: 0.402394 cumulative IPC: 0.410711 (Simulation time: 0 hr 16 min 39 sec) 
select_counter is 477
Heartbeat CPU 0 instructions: 33000001 cycles: 61779173 heartbeat IPC: 0.405175 cumulative IPC: 0.410467 (Simulation time: 0 hr 17 min 11 sec) 
select_counter is 477
Heartbeat CPU 0 instructions: 34000002 cycles: 64192950 heartbeat IPC: 0.414289 cumulative IPC: 0.410625 (Simulation time: 0 hr 17 min 43 sec) 
select_counter is 477
Heartbeat CPU 0 instructions: 35000002 cycles: 66669204 heartbeat IPC: 0.403836 cumulative IPC: 0.410349 (Simulation time: 0 hr 18 min 16 sec) 
select_counter is 449
Heartbeat CPU 0 instructions: 36000000 cycles: 69340799 heartbeat IPC: 0.374307 cumulative IPC: 0.408835 (Simulation time: 0 hr 18 min 42 sec) 
select_counter is 209
Heartbeat CPU 0 instructions: 37000001 cycles: 72390102 heartbeat IPC: 0.327944 cumulative IPC: 0.405134 (Simulation time: 0 hr 19 min 16 sec) 
select_counter is 129
Heartbeat CPU 0 instructions: 38000000 cycles: 75186715 heartbeat IPC: 0.357575 cumulative IPC: 0.403219 (Simulation time: 0 hr 19 min 44 sec) 
select_counter is 993
Heartbeat CPU 0 instructions: 39000000 cycles: 78029143 heartbeat IPC: 0.351812 cumulative IPC: 0.401197 (Simulation time: 0 hr 20 min 13 sec) 
select_counter is 961
Heartbeat CPU 0 instructions: 40000000 cycles: 80688928 heartbeat IPC: 0.37597 cumulative IPC: 0.400302 (Simulation time: 0 hr 20 min 42 sec) 
select_counter is 956
Heartbeat CPU 0 instructions: 41000000 cycles: 83341432 heartbeat IPC: 0.377002 cumulative IPC: 0.399505 (Simulation time: 0 hr 21 min 10 sec) 
select_counter is 949
Heartbeat CPU 0 instructions: 42000002 cycles: 85986269 heartbeat IPC: 0.378096 cumulative IPC: 0.3988 (Simulation time: 0 hr 21 min 38 sec) 
select_counter is 947
Heartbeat CPU 0 instructions: 43000000 cycles: 88646115 heartbeat IPC: 0.375961 cumulative IPC: 0.398067 (Simulation time: 0 hr 22 min 7 sec) 
select_counter is 947
Heartbeat CPU 0 instructions: 44000000 cycles: 91275948 heartbeat IPC: 0.380252 cumulative IPC: 0.397519 (Simulation time: 0 hr 22 min 34 sec) 
select_counter is 947
Heartbeat CPU 0 instructions: 45000001 cycles: 93932810 heartbeat IPC: 0.376384 cumulative IPC: 0.396883 (Simulation time: 0 hr 23 min 3 sec) 
select_counter is 949
Heartbeat CPU 0 instructions: 46000003 cycles: 96557957 heartbeat IPC: 0.380932 cumulative IPC: 0.396421 (Simulation time: 0 hr 23 min 31 sec) 
select_counter is 943
Heartbeat CPU 0 instructions: 47000002 cycles: 99174143 heartbeat IPC: 0.382235 cumulative IPC: 0.396024 (Simulation time: 0 hr 24 min 2 sec) 
select_counter is 943
Heartbeat CPU 0 instructions: 48000000 cycles: 101774395 heartbeat IPC: 0.384577 cumulative IPC: 0.395714 (Simulation time: 0 hr 24 min 31 sec) 
select_counter is 942
Heartbeat CPU 0 instructions: 49000002 cycles: 104376854 heartbeat IPC: 0.384253 cumulative IPC: 0.395412 (Simulation time: 0 hr 25 min 0 sec) 
select_counter is 941
Heartbeat CPU 0 instructions: 50000002 cycles: 106988697 heartbeat IPC: 0.382871 cumulative IPC: 0.395088 (Simulation time: 0 hr 25 min 31 sec) 
select_counter is 938
Heartbeat CPU 0 instructions: 51000003 cycles: 109602573 heartbeat IPC: 0.382574 cumulative IPC: 0.394773 (Simulation time: 0 hr 25 min 59 sec) 
select_counter is 939
Heartbeat CPU 0 instructions: 52000000 cycles: 112200654 heartbeat IPC: 0.384898 cumulative IPC: 0.394532 (Simulation time: 0 hr 26 min 28 sec) 
select_counter is 940
Heartbeat CPU 0 instructions: 53000000 cycles: 114783952 heartbeat IPC: 0.387102 cumulative IPC: 0.394356 (Simulation time: 0 hr 26 min 56 sec) 
select_counter is 937
Heartbeat CPU 0 instructions: 54000000 cycles: 117410573 heartbeat IPC: 0.380717 cumulative IPC: 0.394035 (Simulation time: 0 hr 27 min 26 sec) 
select_counter is 934
Heartbeat CPU 0 instructions: 55000003 cycles: 119982774 heartbeat IPC: 0.388773 cumulative IPC: 0.393917 (Simulation time: 0 hr 27 min 57 sec) 
select_counter is 931
Heartbeat CPU 0 instructions: 56000000 cycles: 122370262 heartbeat IPC: 0.418849 cumulative IPC: 0.394427 (Simulation time: 0 hr 28 min 36 sec) 
select_counter is 909
Heartbeat CPU 0 instructions: 57000002 cycles: 124628708 heartbeat IPC: 0.442783 cumulative IPC: 0.395346 (Simulation time: 0 hr 29 min 8 sec) 
select_counter is 909
Heartbeat CPU 0 instructions: 58000001 cycles: 125962245 heartbeat IPC: 0.749885 cumulative IPC: 0.399279 (Simulation time: 0 hr 29 min 33 sec) 
select_counter is 882
Heartbeat CPU 0 instructions: 59000002 cycles: 128199511 heartbeat IPC: 0.446975 cumulative IPC: 0.40015 (Simulation time: 0 hr 30 min 5 sec) 
select_counter is 878
Heartbeat CPU 0 instructions: 60000000 cycles: 130548183 heartbeat IPC: 0.425772 cumulative IPC: 0.400632 (Simulation time: 0 hr 30 min 35 sec) 
select_counter is 878
Heartbeat CPU 0 instructions: 61000002 cycles: 132997673 heartbeat IPC: 0.408249 cumulative IPC: 0.400779 (Simulation time: 0 hr 31 min 10 sec) 
select_counter is 878
Heartbeat CPU 0 instructions: 62000000 cycles: 135363890 heartbeat IPC: 0.422615 cumulative IPC: 0.401178 (Simulation time: 0 hr 31 min 47 sec) 
select_counter is 878
Heartbeat CPU 0 instructions: 63000000 cycles: 137726387 heartbeat IPC: 0.423281 cumulative IPC: 0.401573 (Simulation time: 0 hr 32 min 22 sec) 
select_counter is 878
Heartbeat CPU 0 instructions: 64000000 cycles: 140145881 heartbeat IPC: 0.41331 cumulative IPC: 0.401785 (Simulation time: 0 hr 32 min 57 sec) 
select_counter is 878
Heartbeat CPU 0 instructions: 65000003 cycles: 142470032 heartbeat IPC: 0.430266 cumulative IPC: 0.402269 (Simulation time: 0 hr 33 min 31 sec) 
select_counter is 878
Heartbeat CPU 0 instructions: 66000002 cycles: 144813203 heartbeat IPC: 0.426772 cumulative IPC: 0.402682 (Simulation time: 0 hr 34 min 1 sec) 
select_counter is 878
Heartbeat CPU 0 instructions: 67000001 cycles: 147168719 heartbeat IPC: 0.424535 cumulative IPC: 0.403046 (Simulation time: 0 hr 34 min 32 sec) 
select_counter is 878
Heartbeat CPU 0 instructions: 68000000 cycles: 149616910 heartbeat IPC: 0.408464 cumulative IPC: 0.403138 (Simulation time: 0 hr 35 min 2 sec) 
select_counter is 878
Heartbeat CPU 0 instructions: 69000001 cycles: 151969095 heartbeat IPC: 0.425137 cumulative IPC: 0.403492 (Simulation time: 0 hr 35 min 30 sec) 
select_counter is 879
Heartbeat CPU 0 instructions: 70000000 cycles: 154384933 heartbeat IPC: 0.413935 cumulative IPC: 0.403661 (Simulation time: 0 hr 35 min 57 sec) 
select_counter is 879
Heartbeat CPU 0 instructions: 71000000 cycles: 156771199 heartbeat IPC: 0.419065 cumulative IPC: 0.403905 (Simulation time: 0 hr 36 min 23 sec) 
select_counter is 879
Heartbeat CPU 0 instructions: 72000000 cycles: 159099917 heartbeat IPC: 0.429421 cumulative IPC: 0.404292 (Simulation time: 0 hr 36 min 49 sec) 
select_counter is 879
Heartbeat CPU 0 instructions: 73000000 cycles: 161432726 heartbeat IPC: 0.428668 cumulative IPC: 0.404657 (Simulation time: 0 hr 37 min 12 sec) 
select_counter is 879
Heartbeat CPU 0 instructions: 74000002 cycles: 163817679 heartbeat IPC: 0.419296 cumulative IPC: 0.404878 (Simulation time: 0 hr 37 min 36 sec) 
select_counter is 879
Heartbeat CPU 0 instructions: 75000000 cycles: 166241127 heartbeat IPC: 0.412634 cumulative IPC: 0.404995 (Simulation time: 0 hr 38 min 0 sec) 
select_counter is 879
Heartbeat CPU 0 instructions: 76000000 cycles: 168600330 heartbeat IPC: 0.423872 cumulative IPC: 0.405269 (Simulation time: 0 hr 38 min 23 sec) 
select_counter is 879
Heartbeat CPU 0 instructions: 77000000 cycles: 171034825 heartbeat IPC: 0.410763 cumulative IPC: 0.40535 (Simulation time: 0 hr 38 min 44 sec) 
select_counter is 879
Heartbeat CPU 0 instructions: 78000002 cycles: 173399742 heartbeat IPC: 0.422849 cumulative IPC: 0.405597 (Simulation time: 0 hr 39 min 6 sec) 
select_counter is 879
Heartbeat CPU 0 instructions: 79000001 cycles: 175736129 heartbeat IPC: 0.428011 cumulative IPC: 0.405905 (Simulation time: 0 hr 39 min 28 sec) 
select_counter is 879
Heartbeat CPU 0 instructions: 80000000 cycles: 178067228 heartbeat IPC: 0.428982 cumulative IPC: 0.406217 (Simulation time: 0 hr 39 min 49 sec) 
select_counter is 879
Heartbeat CPU 0 instructions: 81000000 cycles: 180490912 heartbeat IPC: 0.412595 cumulative IPC: 0.406305 (Simulation time: 0 hr 40 min 9 sec) 
select_counter is 879
Heartbeat CPU 0 instructions: 82000000 cycles: 182853901 heartbeat IPC: 0.423193 cumulative IPC: 0.406531 (Simulation time: 0 hr 40 min 27 sec) 
select_counter is 879
Heartbeat CPU 0 instructions: 83000002 cycles: 185174784 heartbeat IPC: 0.430871 cumulative IPC: 0.406846 (Simulation time: 0 hr 40 min 44 sec) 
select_counter is 879
Heartbeat CPU 0 instructions: 84000000 cycles: 187597336 heartbeat IPC: 0.412787 cumulative IPC: 0.406925 (Simulation time: 0 hr 41 min 2 sec) 
select_counter is 879
Heartbeat CPU 0 instructions: 85000000 cycles: 189971768 heartbeat IPC: 0.421153 cumulative IPC: 0.407108 (Simulation time: 0 hr 41 min 19 sec) 
select_counter is 880
Heartbeat CPU 0 instructions: 86000000 cycles: 192321324 heartbeat IPC: 0.425612 cumulative IPC: 0.407341 (Simulation time: 0 hr 41 min 37 sec) 
select_counter is 880
Heartbeat CPU 0 instructions: 87000001 cycles: 194767643 heartbeat IPC: 0.408778 cumulative IPC: 0.40736 (Simulation time: 0 hr 41 min 54 sec) 
select_counter is 880
Heartbeat CPU 0 instructions: 88000000 cycles: 197133177 heartbeat IPC: 0.422737 cumulative IPC: 0.40755 (Simulation time: 0 hr 42 min 12 sec) 
select_counter is 880
Heartbeat CPU 0 instructions: 89000002 cycles: 199458179 heartbeat IPC: 0.430108 cumulative IPC: 0.40782 (Simulation time: 0 hr 42 min 30 sec) 
select_counter is 880
Heartbeat CPU 0 instructions: 90000002 cycles: 201821852 heartbeat IPC: 0.42307 cumulative IPC: 0.408004 (Simulation time: 0 hr 42 min 46 sec) 
select_counter is 880
Heartbeat CPU 0 instructions: 91000003 cycles: 204238405 heartbeat IPC: 0.413813 cumulative IPC: 0.408075 (Simulation time: 0 hr 43 min 1 sec) 
select_counter is 880
Heartbeat CPU 0 instructions: 92000000 cycles: 206597083 heartbeat IPC: 0.423965 cumulative IPC: 0.408262 (Simulation time: 0 hr 43 min 16 sec) 
select_counter is 880
Heartbeat CPU 0 instructions: 93000001 cycles: 208943697 heartbeat IPC: 0.426146 cumulative IPC: 0.408468 (Simulation time: 0 hr 43 min 29 sec) 
select_counter is 880
Heartbeat CPU 0 instructions: 94000002 cycles: 211396159 heartbeat IPC: 0.407754 cumulative IPC: 0.40846 (Simulation time: 0 hr 43 min 41 sec) 
select_counter is 880
Heartbeat CPU 0 instructions: 95000000 cycles: 213757012 heartbeat IPC: 0.423575 cumulative IPC: 0.408631 (Simulation time: 0 hr 43 min 52 sec) 
select_counter is 880
Heartbeat CPU 0 instructions: 96000000 cycles: 216080312 heartbeat IPC: 0.430422 cumulative IPC: 0.408872 (Simulation time: 0 hr 44 min 3 sec) 
select_counter is 880
Heartbeat CPU 0 instructions: 97000000 cycles: 218467042 heartbeat IPC: 0.418983 cumulative IPC: 0.408985 (Simulation time: 0 hr 44 min 13 sec) 
select_counter is 880
Heartbeat CPU 0 instructions: 98000001 cycles: 220867065 heartbeat IPC: 0.416663 cumulative IPC: 0.409071 (Simulation time: 0 hr 44 min 23 sec) 
select_counter is 880
Heartbeat CPU 0 instructions: 99000002 cycles: 223225894 heartbeat IPC: 0.42394 cumulative IPC: 0.409232 (Simulation time: 0 hr 44 min 31 sec) 
select_counter is 880
Heartbeat CPU 0 instructions: 100000000 cycles: 225578156 heartbeat IPC: 0.425122 cumulative IPC: 0.409402 (Simulation time: 0 hr 44 min 38 sec) 
select_counter is 880
Heartbeat CPU 0 instructions: 101000000 cycles: 227993498 heartbeat IPC: 0.41402 cumulative IPC: 0.409452 (Simulation time: 0 hr 44 min 45 sec) 
select_counter is 880
Heartbeat CPU 0 instructions: 102000000 cycles: 230226150 heartbeat IPC: 0.447898 cumulative IPC: 0.409835 (Simulation time: 0 hr 44 min 52 sec) 
select_counter is 880
Heartbeat CPU 0 instructions: 103000001 cycles: 232730750 heartbeat IPC: 0.399266 cumulative IPC: 0.409718 (Simulation time: 0 hr 44 min 58 sec) 
select_counter is 880
Heartbeat CPU 0 instructions: 104000000 cycles: 235233270 heartbeat IPC: 0.399597 cumulative IPC: 0.409608 (Simulation time: 0 hr 45 min 4 sec) 
select_counter is 880
Heartbeat CPU 0 instructions: 105000000 cycles: 237733143 heartbeat IPC: 0.40002 cumulative IPC: 0.409505 (Simulation time: 0 hr 45 min 10 sec) 
select_counter is 880
Heartbeat CPU 0 instructions: 106000000 cycles: 240229348 heartbeat IPC: 0.400608 cumulative IPC: 0.40941 (Simulation time: 0 hr 45 min 15 sec) 
select_counter is 880
Heartbeat CPU 0 instructions: 107000001 cycles: 242719940 heartbeat IPC: 0.401511 cumulative IPC: 0.409327 (Simulation time: 0 hr 45 min 20 sec) 
select_counter is 880
Heartbeat CPU 0 instructions: 108000000 cycles: 245200346 heartbeat IPC: 0.403159 cumulative IPC: 0.409263 (Simulation time: 0 hr 45 min 26 sec) 
select_counter is 880
Heartbeat CPU 0 instructions: 109000002 cycles: 247656495 heartbeat IPC: 0.407142 cumulative IPC: 0.409241 (Simulation time: 0 hr 45 min 31 sec) 
select_counter is 880
Heartbeat CPU 0 instructions: 110000000 cycles: 249975931 heartbeat IPC: 0.431138 cumulative IPC: 0.409449 (Simulation time: 0 hr 45 min 35 sec) 
select_counter is 880
Finished CPU 0 instructions: 100000000 cycles: 244230455 cummulative IPC: 0.409449 (Simulation time: 0 hr 45 min 35 sec) 

ChampSim completed all CPUs

Region of Interest Statistics

CPU 0 cummulative IPC: 0.409449 instructions: 100000000 cycles: 244230455
LLC TOTAL     ACCESS:      81693  HIT:      61812  MISS:      19881
LLC LOAD      ACCESS:      53416  HIT:      39657  MISS:      13759
LLC RFO       ACCESS:      10648  HIT:       4526  MISS:       6122
LLC PREFETCH  ACCESS:          0  HIT:          0  MISS:          0
LLC WRITEBACK ACCESS:      17629  HIT:      17629  MISS:          0
Ship samples: 
5, 43, 74, 109, 135, 171, 196, 233, 259, 302, 326, 359, 392, 429, 459, 491, 526, 547, 585, 612, 648, 673, 717, 736, 774, 814, 843, 878, 909, 940, 965, 994, 1034, 1065, 1093, 1130, 1166, 1195, 1229, 1258, 1288, 1318, 1358, 1387, 1415, 1451, 1483, 1506, 1550, 1568, 1603, 1640, 1673, 1699, 1732, 1772, 1806, 1837, 1866, 1897, 1927, 1952, 1984, 2019, 
Lime duel samples: 
1, 27, 40, 60, 76, 80, 99, 122, 137, 153, 168, 188, 200, 222, 225, 244, 256, 280, 296, 305, 320, 350, 353, 382, 386, 409, 421, 437, 452, 466, 480, 509, 519, 538, 557, 570, 586, 595, 618, 635, 646, 656, 685, 696, 715, 721, 740, 758, 770, 792, 809, 824, 841, 852, 871, 880, 899, 913, 934, 945, 971, 990, 992, 1009, 1024, 1040, 1069, 1076, 1102, 1114, 1124, 1149, 1153, 1177, 1187, 1207, 1224, 1241, 1251, 1264, 1282, 1299, 1317, 1330, 1352, 1363, 1389, 1396, 1419, 1435, 1453, 1464, 1473, 1495, 1505, 1525, 1539, 1553, 1575, 1598, 1606, 1625, 1646, 1657, 1669, 1687, 1706, 1714, 1739, 1757, 1769, 1787, 1805, 1816, 1830, 1852, 1856, 1872, 1892, 1904, 1930, 1948, 1954, 1970, 1995, 2006, 2028, 2037, 
Lime samples: 
1, 99, 200, 296, 386, 480, 586, 685, 770, 871, 971, 1069, 1153, 1251, 1352, 1453, 1539, 1646, 1739, 1830, 1930, 
Insertion Distribution: 
	LOAD 15 0 0 0 0 0 10429 9 
	RFO 2 0 0 0 0 0 4613 0 
	PREF 0 0 0 0 0 0 0 0 
	WRITEBACK 0 0 0 0 0 0 0 0 
Total Prefetch Downgrades: 0
