
*** ChampSim Multicore Out-of-Order Simulator ***

Warmup Instructions: 10000000
Simulation Instructions: 100000000
Configuration: 1
Number of CPUs: 1
LLC sets: 2048
LLC ways: 16
Off-chip DRAM Channels: 1 Width: 64-bit Data Rate: 1600 MT/s

CPU 0 runs /datasets/cs240c-wi22-a00-public/data/Assignment2-gz/leslie3d_94B.trace.gz
Heartbeat CPU 0 instructions: 1000003 cycles: 592147 heartbeat IPC: 1.68877 cumulative IPC: 1.68877 (Simulation time: 0 hr 0 min 26 sec) 
select_counter is 757
Heartbeat CPU 0 instructions: 2000002 cycles: 1206650 heartbeat IPC: 1.62733 cumulative IPC: 1.65748 (Simulation time: 0 hr 0 min 53 sec) 
select_counter is 105
Heartbeat CPU 0 instructions: 3000003 cycles: 1854557 heartbeat IPC: 1.54343 cumulative IPC: 1.61764 (Simulation time: 0 hr 1 min 19 sec) 
select_counter is 471
Heartbeat CPU 0 instructions: 4000000 cycles: 2502113 heartbeat IPC: 1.54426 cumulative IPC: 1.59865 (Simulation time: 0 hr 1 min 45 sec) 
select_counter is 789
Heartbeat CPU 0 instructions: 5000002 cycles: 3062793 heartbeat IPC: 1.78355 cumulative IPC: 1.6325 (Simulation time: 0 hr 2 min 9 sec) 
select_counter is 387
Heartbeat CPU 0 instructions: 6000002 cycles: 3709900 heartbeat IPC: 1.54534 cumulative IPC: 1.61729 (Simulation time: 0 hr 2 min 37 sec) 
select_counter is 844
Heartbeat CPU 0 instructions: 7000000 cycles: 4356958 heartbeat IPC: 1.54545 cumulative IPC: 1.60663 (Simulation time: 0 hr 3 min 4 sec) 
select_counter is 214
Heartbeat CPU 0 instructions: 8000000 cycles: 4917692 heartbeat IPC: 1.78338 cumulative IPC: 1.62678 (Simulation time: 0 hr 3 min 29 sec) 
select_counter is 620
Heartbeat CPU 0 instructions: 9000000 cycles: 5565293 heartbeat IPC: 1.54416 cumulative IPC: 1.61717 (Simulation time: 0 hr 3 min 55 sec) 
select_counter is 13
Heartbeat CPU 0 instructions: 10000001 cycles: 6213325 heartbeat IPC: 1.54314 cumulative IPC: 1.60944 (Simulation time: 0 hr 4 min 21 sec) 
select_counter is 485

Warmup complete CPU 0 instructions: 10000001 cycles: 6213325 (Simulation time: 0 hr 4 min 21 sec) 

Heartbeat CPU 0 instructions: 11000000 cycles: 8079908 heartbeat IPC: 0.535738 cumulative IPC: 0.535738 (Simulation time: 0 hr 4 min 51 sec) 
select_counter is 934
Heartbeat CPU 0 instructions: 12000000 cycles: 10560344 heartbeat IPC: 0.403155 cumulative IPC: 0.460085 (Simulation time: 0 hr 5 min 24 sec) 
select_counter is 72
Heartbeat CPU 0 instructions: 13000000 cycles: 13077685 heartbeat IPC: 0.397245 cumulative IPC: 0.43704 (Simulation time: 0 hr 5 min 55 sec) 
select_counter is 892
Heartbeat CPU 0 instructions: 14000000 cycles: 15397474 heartbeat IPC: 0.431074 cumulative IPC: 0.435533 (Simulation time: 0 hr 6 min 28 sec) 
select_counter is 218
Heartbeat CPU 0 instructions: 15000001 cycles: 17514672 heartbeat IPC: 0.472323 cumulative IPC: 0.442425 (Simulation time: 0 hr 6 min 57 sec) 
select_counter is 523
Heartbeat CPU 0 instructions: 16000000 cycles: 19774416 heartbeat IPC: 0.442528 cumulative IPC: 0.442442 (Simulation time: 0 hr 7 min 27 sec) 
select_counter is 923
Heartbeat CPU 0 instructions: 17000001 cycles: 21844127 heartbeat IPC: 0.48316 cumulative IPC: 0.447834 (Simulation time: 0 hr 7 min 56 sec) 
select_counter is 414
Heartbeat CPU 0 instructions: 18000002 cycles: 24062685 heartbeat IPC: 0.450744 cumulative IPC: 0.448195 (Simulation time: 0 hr 8 min 26 sec) 
select_counter is 800
Heartbeat CPU 0 instructions: 19000001 cycles: 26180754 heartbeat IPC: 0.472128 cumulative IPC: 0.450734 (Simulation time: 0 hr 8 min 59 sec) 
select_counter is 222
Heartbeat CPU 0 instructions: 20000000 cycles: 28443209 heartbeat IPC: 0.441997 cumulative IPC: 0.449845 (Simulation time: 0 hr 9 min 31 sec) 
select_counter is 476
Heartbeat CPU 0 instructions: 21000002 cycles: 30551476 heartbeat IPC: 0.474324 cumulative IPC: 0.451965 (Simulation time: 0 hr 10 min 3 sec) 
select_counter is 956
Heartbeat CPU 0 instructions: 22000002 cycles: 33295056 heartbeat IPC: 0.364487 cumulative IPC: 0.443103 (Simulation time: 0 hr 10 min 32 sec) 
select_counter is 351
Heartbeat CPU 0 instructions: 23000000 cycles: 36148686 heartbeat IPC: 0.35043 cumulative IPC: 0.434269 (Simulation time: 0 hr 11 min 4 sec) 
select_counter is 869
Heartbeat CPU 0 instructions: 24000000 cycles: 38996264 heartbeat IPC: 0.351176 cumulative IPC: 0.427051 (Simulation time: 0 hr 11 min 35 sec) 
select_counter is 366
Heartbeat CPU 0 instructions: 25000000 cycles: 42175185 heartbeat IPC: 0.314572 cumulative IPC: 0.417109 (Simulation time: 0 hr 12 min 7 sec) 
select_counter is 756
Heartbeat CPU 0 instructions: 26000002 cycles: 46179174 heartbeat IPC: 0.249751 cumulative IPC: 0.400342 (Simulation time: 0 hr 12 min 46 sec) 
select_counter is 28
Heartbeat CPU 0 instructions: 27000001 cycles: 50252324 heartbeat IPC: 0.24551 cumulative IPC: 0.386021 (Simulation time: 0 hr 13 min 27 sec) 
select_counter is 306
Heartbeat CPU 0 instructions: 28000000 cycles: 54334029 heartbeat IPC: 0.244995 cumulative IPC: 0.374059 (Simulation time: 0 hr 14 min 12 sec) 
select_counter is 617
Heartbeat CPU 0 instructions: 29000000 cycles: 58333547 heartbeat IPC: 0.25003 cumulative IPC: 0.364542 (Simulation time: 0 hr 14 min 51 sec) 
select_counter is 337
Heartbeat CPU 0 instructions: 30000002 cycles: 60334414 heartbeat IPC: 0.499784 cumulative IPC: 0.369542 (Simulation time: 0 hr 15 min 19 sec) 
select_counter is 895
Heartbeat CPU 0 instructions: 31000002 cycles: 62120384 heartbeat IPC: 0.55992 cumulative IPC: 0.375623 (Simulation time: 0 hr 15 min 46 sec) 
select_counter is 657
Heartbeat CPU 0 instructions: 32000000 cycles: 63942822 heartbeat IPC: 0.548714 cumulative IPC: 0.381088 (Simulation time: 0 hr 16 min 21 sec) 
select_counter is 367
Heartbeat CPU 0 instructions: 33000001 cycles: 65744059 heartbeat IPC: 0.555175 cumulative IPC: 0.386355 (Simulation time: 0 hr 16 min 53 sec) 
select_counter is 109
Heartbeat CPU 0 instructions: 34000003 cycles: 67600935 heartbeat IPC: 0.53854 cumulative IPC: 0.390958 (Simulation time: 0 hr 17 min 22 sec) 
select_counter is 803
Heartbeat CPU 0 instructions: 35000000 cycles: 69362894 heartbeat IPC: 0.567548 cumulative IPC: 0.395885 (Simulation time: 0 hr 17 min 50 sec) 
select_counter is 504
Heartbeat CPU 0 instructions: 36000000 cycles: 71216068 heartbeat IPC: 0.539615 cumulative IPC: 0.399983 (Simulation time: 0 hr 18 min 18 sec) 
select_counter is 205
Heartbeat CPU 0 instructions: 37000003 cycles: 73047665 heartbeat IPC: 0.545973 cumulative IPC: 0.403984 (Simulation time: 0 hr 18 min 48 sec) 
select_counter is 919
Heartbeat CPU 0 instructions: 38000000 cycles: 74857792 heartbeat IPC: 0.552446 cumulative IPC: 0.407899 (Simulation time: 0 hr 19 min 16 sec) 
select_counter is 499
Heartbeat CPU 0 instructions: 39000000 cycles: 76666410 heartbeat IPC: 0.552908 cumulative IPC: 0.411621 (Simulation time: 0 hr 19 min 45 sec) 
select_counter is 1
Heartbeat CPU 0 instructions: 40000000 cycles: 78434749 heartbeat IPC: 0.565502 cumulative IPC: 0.415389 (Simulation time: 0 hr 20 min 14 sec) 
select_counter is 503
Heartbeat CPU 0 instructions: 41000002 cycles: 80298743 heartbeat IPC: 0.536483 cumulative IPC: 0.418436 (Simulation time: 0 hr 20 min 45 sec) 
select_counter is 28
Heartbeat CPU 0 instructions: 42000002 cycles: 82119081 heartbeat IPC: 0.549349 cumulative IPC: 0.421575 (Simulation time: 0 hr 21 min 14 sec) 
select_counter is 617
Heartbeat CPU 0 instructions: 43000002 cycles: 83968760 heartbeat IPC: 0.540634 cumulative IPC: 0.424408 (Simulation time: 0 hr 21 min 44 sec) 
select_counter is 160
Heartbeat CPU 0 instructions: 44000000 cycles: 85765160 heartbeat IPC: 0.556668 cumulative IPC: 0.427394 (Simulation time: 0 hr 22 min 14 sec) 
select_counter is 685
Heartbeat CPU 0 instructions: 45000001 cycles: 87608542 heartbeat IPC: 0.542482 cumulative IPC: 0.430001 (Simulation time: 0 hr 22 min 44 sec) 
select_counter is 220
Heartbeat CPU 0 instructions: 46000001 cycles: 89491290 heartbeat IPC: 0.531139 cumulative IPC: 0.432287 (Simulation time: 0 hr 23 min 13 sec) 
select_counter is 723
Heartbeat CPU 0 instructions: 47000000 cycles: 91298051 heartbeat IPC: 0.553476 cumulative IPC: 0.434861 (Simulation time: 0 hr 23 min 41 sec) 
select_counter is 283
Heartbeat CPU 0 instructions: 48000000 cycles: 93164300 heartbeat IPC: 0.535834 cumulative IPC: 0.437028 (Simulation time: 0 hr 24 min 15 sec) 
select_counter is 844
Heartbeat CPU 0 instructions: 49000001 cycles: 94993537 heartbeat IPC: 0.546677 cumulative IPC: 0.439287 (Simulation time: 0 hr 24 min 45 sec) 
select_counter is 394
Heartbeat CPU 0 instructions: 50000001 cycles: 96838892 heartbeat IPC: 0.541901 cumulative IPC: 0.441377 (Simulation time: 0 hr 25 min 15 sec) 
select_counter is 931
Heartbeat CPU 0 instructions: 51000003 cycles: 98651600 heartbeat IPC: 0.551662 cumulative IPC: 0.443539 (Simulation time: 0 hr 25 min 45 sec) 
select_counter is 450
Heartbeat CPU 0 instructions: 52000000 cycles: 100435620 heartbeat IPC: 0.56053 cumulative IPC: 0.445754 (Simulation time: 0 hr 26 min 15 sec) 
select_counter is 988
Heartbeat CPU 0 instructions: 53000002 cycles: 102300587 heartbeat IPC: 0.536204 cumulative IPC: 0.44751 (Simulation time: 0 hr 26 min 43 sec) 
select_counter is 541
Heartbeat CPU 0 instructions: 54000001 cycles: 104088955 heartbeat IPC: 0.559168 cumulative IPC: 0.44955 (Simulation time: 0 hr 27 min 11 sec) 
select_counter is 92
Heartbeat CPU 0 instructions: 55000000 cycles: 105938738 heartbeat IPC: 0.540603 cumulative IPC: 0.451239 (Simulation time: 0 hr 27 min 40 sec) 
select_counter is 628
Heartbeat CPU 0 instructions: 56000000 cycles: 107761270 heartbeat IPC: 0.548687 cumulative IPC: 0.452988 (Simulation time: 0 hr 28 min 10 sec) 
select_counter is 147
Heartbeat CPU 0 instructions: 57000000 cycles: 109598438 heartbeat IPC: 0.544316 cumulative IPC: 0.454611 (Simulation time: 0 hr 28 min 40 sec) 
select_counter is 693
Heartbeat CPU 0 instructions: 58000001 cycles: 111377265 heartbeat IPC: 0.562169 cumulative IPC: 0.45643 (Simulation time: 0 hr 29 min 12 sec) 
select_counter is 261
Heartbeat CPU 0 instructions: 59000003 cycles: 113139434 heartbeat IPC: 0.567484 cumulative IPC: 0.45826 (Simulation time: 0 hr 29 min 45 sec) 
select_counter is 845
Heartbeat CPU 0 instructions: 60000000 cycles: 114966460 heartbeat IPC: 0.547336 cumulative IPC: 0.459757 (Simulation time: 0 hr 30 min 14 sec) 
select_counter is 302
Heartbeat CPU 0 instructions: 61000001 cycles: 116749507 heartbeat IPC: 0.560838 cumulative IPC: 0.461387 (Simulation time: 0 hr 30 min 43 sec) 
select_counter is 865
Heartbeat CPU 0 instructions: 62000002 cycles: 118558604 heartbeat IPC: 0.552763 cumulative IPC: 0.462859 (Simulation time: 0 hr 31 min 9 sec) 
select_counter is 398
Heartbeat CPU 0 instructions: 63000001 cycles: 120332178 heartbeat IPC: 0.563833 cumulative IPC: 0.464428 (Simulation time: 0 hr 31 min 37 sec) 
select_counter is 967
Heartbeat CPU 0 instructions: 64000000 cycles: 122168788 heartbeat IPC: 0.544481 cumulative IPC: 0.465696 (Simulation time: 0 hr 32 min 4 sec) 
select_counter is 518
Heartbeat CPU 0 instructions: 65000000 cycles: 123997553 heartbeat IPC: 0.546817 cumulative IPC: 0.466956 (Simulation time: 0 hr 32 min 33 sec) 
select_counter is 24
Heartbeat CPU 0 instructions: 66000000 cycles: 125830446 heartbeat IPC: 0.545586 cumulative IPC: 0.46816 (Simulation time: 0 hr 32 min 59 sec) 
select_counter is 546
Heartbeat CPU 0 instructions: 67000002 cycles: 127662176 heartbeat IPC: 0.545933 cumulative IPC: 0.469333 (Simulation time: 0 hr 33 min 28 sec) 
select_counter is 76
Heartbeat CPU 0 instructions: 68000000 cycles: 129469116 heartbeat IPC: 0.553421 cumulative IPC: 0.470566 (Simulation time: 0 hr 33 min 55 sec) 
select_counter is 709
Heartbeat CPU 0 instructions: 69000000 cycles: 131282222 heartbeat IPC: 0.55154 cumulative IPC: 0.47174 (Simulation time: 0 hr 34 min 21 sec) 
select_counter is 230
Heartbeat CPU 0 instructions: 70000001 cycles: 133083589 heartbeat IPC: 0.555135 cumulative IPC: 0.472924 (Simulation time: 0 hr 34 min 47 sec) 
select_counter is 772
Heartbeat CPU 0 instructions: 71000002 cycles: 134952558 heartbeat IPC: 0.535055 cumulative IPC: 0.473826 (Simulation time: 0 hr 35 min 12 sec) 
select_counter is 293
Heartbeat CPU 0 instructions: 72000000 cycles: 136716037 heartbeat IPC: 0.56706 cumulative IPC: 0.475086 (Simulation time: 0 hr 35 min 37 sec) 
select_counter is 816
Heartbeat CPU 0 instructions: 73000002 cycles: 138520770 heartbeat IPC: 0.5541 cumulative IPC: 0.476164 (Simulation time: 0 hr 36 min 0 sec) 
select_counter is 402
Heartbeat CPU 0 instructions: 74000000 cycles: 140321461 heartbeat IPC: 0.555341 cumulative IPC: 0.477227 (Simulation time: 0 hr 36 min 22 sec) 
select_counter is 932
Heartbeat CPU 0 instructions: 75000000 cycles: 142116324 heartbeat IPC: 0.557146 cumulative IPC: 0.478282 (Simulation time: 0 hr 36 min 43 sec) 
select_counter is 470
Heartbeat CPU 0 instructions: 76000000 cycles: 143946747 heartbeat IPC: 0.546322 cumulative IPC: 0.479187 (Simulation time: 0 hr 37 min 5 sec) 
select_counter is 1008
Heartbeat CPU 0 instructions: 77000000 cycles: 145729234 heartbeat IPC: 0.561014 cumulative IPC: 0.480232 (Simulation time: 0 hr 37 min 26 sec) 
select_counter is 523
Heartbeat CPU 0 instructions: 78000003 cycles: 147605687 heartbeat IPC: 0.532922 cumulative IPC: 0.480931 (Simulation time: 0 hr 37 min 46 sec) 
select_counter is 83
Heartbeat CPU 0 instructions: 79000000 cycles: 149594316 heartbeat IPC: 0.502858 cumulative IPC: 0.481235 (Simulation time: 0 hr 38 min 8 sec) 
select_counter is 385
Heartbeat CPU 0 instructions: 80000000 cycles: 151895028 heartbeat IPC: 0.434648 cumulative IPC: 0.4805 (Simulation time: 0 hr 38 min 28 sec) 
select_counter is 798
Heartbeat CPU 0 instructions: 81000002 cycles: 154108550 heartbeat IPC: 0.45177 cumulative IPC: 0.48007 (Simulation time: 0 hr 38 min 48 sec) 
select_counter is 181
Heartbeat CPU 0 instructions: 82000003 cycles: 156437936 heartbeat IPC: 0.429298 cumulative IPC: 0.479282 (Simulation time: 0 hr 39 min 8 sec) 
select_counter is 569
Heartbeat CPU 0 instructions: 83000000 cycles: 158772252 heartbeat IPC: 0.42839 cumulative IPC: 0.478504 (Simulation time: 0 hr 39 min 27 sec) 
select_counter is 980
Heartbeat CPU 0 instructions: 84000000 cycles: 161016391 heartbeat IPC: 0.445605 cumulative IPC: 0.478027 (Simulation time: 0 hr 39 min 45 sec) 
select_counter is 344
Heartbeat CPU 0 instructions: 85000000 cycles: 163345389 heartbeat IPC: 0.429369 cumulative IPC: 0.477306 (Simulation time: 0 hr 40 min 4 sec) 
select_counter is 752
Heartbeat CPU 0 instructions: 86000002 cycles: 165581768 heartbeat IPC: 0.447152 cumulative IPC: 0.476882 (Simulation time: 0 hr 40 min 20 sec) 
select_counter is 822
Heartbeat CPU 0 instructions: 87000000 cycles: 167861282 heartbeat IPC: 0.438689 cumulative IPC: 0.476344 (Simulation time: 0 hr 40 min 36 sec) 
select_counter is 451
Heartbeat CPU 0 instructions: 88000000 cycles: 170177467 heartbeat IPC: 0.431744 cumulative IPC: 0.475714 (Simulation time: 0 hr 40 min 52 sec) 
select_counter is 1020
Heartbeat CPU 0 instructions: 89000002 cycles: 172431061 heartbeat IPC: 0.443737 cumulative IPC: 0.47528 (Simulation time: 0 hr 41 min 12 sec) 
select_counter is 559
Heartbeat CPU 0 instructions: 90000001 cycles: 174704066 heartbeat IPC: 0.439946 cumulative IPC: 0.474804 (Simulation time: 0 hr 41 min 30 sec) 
select_counter is 85
Heartbeat CPU 0 instructions: 91000003 cycles: 176964896 heartbeat IPC: 0.442316 cumulative IPC: 0.474373 (Simulation time: 0 hr 41 min 47 sec) 
select_counter is 622
Heartbeat CPU 0 instructions: 92000000 cycles: 179263720 heartbeat IPC: 0.435004 cumulative IPC: 0.47385 (Simulation time: 0 hr 42 min 3 sec) 
select_counter is 153
Heartbeat CPU 0 instructions: 93000001 cycles: 181609509 heartbeat IPC: 0.426296 cumulative IPC: 0.473214 (Simulation time: 0 hr 42 min 19 sec) 
select_counter is 696
Heartbeat CPU 0 instructions: 94000003 cycles: 183922731 heartbeat IPC: 0.432298 cumulative IPC: 0.472682 (Simulation time: 0 hr 42 min 35 sec) 
select_counter is 221
Heartbeat CPU 0 instructions: 95000002 cycles: 186303004 heartbeat IPC: 0.420119 cumulative IPC: 0.471987 (Simulation time: 0 hr 42 min 49 sec) 
select_counter is 745
Heartbeat CPU 0 instructions: 96000000 cycles: 188584532 heartbeat IPC: 0.438302 cumulative IPC: 0.471566 (Simulation time: 0 hr 43 min 2 sec) 
select_counter is 270
Heartbeat CPU 0 instructions: 97000003 cycles: 191344844 heartbeat IPC: 0.362279 cumulative IPC: 0.469936 (Simulation time: 0 hr 43 min 16 sec) 
select_counter is 558
Heartbeat CPU 0 instructions: 98000002 cycles: 196815282 heartbeat IPC: 0.182801 cumulative IPC: 0.461695 (Simulation time: 0 hr 43 min 37 sec) 
select_counter is 96
Heartbeat CPU 0 instructions: 99000000 cycles: 200499990 heartbeat IPC: 0.271391 cumulative IPC: 0.458086 (Simulation time: 0 hr 43 min 54 sec) 
select_counter is 279
Heartbeat CPU 0 instructions: 100000000 cycles: 202918183 heartbeat IPC: 0.413532 cumulative IPC: 0.457538 (Simulation time: 0 hr 44 min 3 sec) 
select_counter is 323
Heartbeat CPU 0 instructions: 101000002 cycles: 205031525 heartbeat IPC: 0.473185 cumulative IPC: 0.457705 (Simulation time: 0 hr 44 min 11 sec) 
select_counter is 599
Heartbeat CPU 0 instructions: 102000003 cycles: 207027019 heartbeat IPC: 0.50113 cumulative IPC: 0.458136 (Simulation time: 0 hr 44 min 18 sec) 
select_counter is 952
Heartbeat CPU 0 instructions: 103000002 cycles: 209043962 heartbeat IPC: 0.495799 cumulative IPC: 0.458511 (Simulation time: 0 hr 44 min 26 sec) 
select_counter is 492
Heartbeat CPU 0 instructions: 104000000 cycles: 211062809 heartbeat IPC: 0.495331 cumulative IPC: 0.458874 (Simulation time: 0 hr 44 min 32 sec) 
select_counter is 983
Heartbeat CPU 0 instructions: 105000001 cycles: 213256128 heartbeat IPC: 0.455931 cumulative IPC: 0.458842 (Simulation time: 0 hr 44 min 38 sec) 
select_counter is 476
Heartbeat CPU 0 instructions: 106000001 cycles: 215325111 heartbeat IPC: 0.483329 cumulative IPC: 0.459085 (Simulation time: 0 hr 44 min 43 sec) 
select_counter is 990
Heartbeat CPU 0 instructions: 107000000 cycles: 217513869 heartbeat IPC: 0.45688 cumulative IPC: 0.459062 (Simulation time: 0 hr 44 min 49 sec) 
select_counter is 469
Heartbeat CPU 0 instructions: 108000000 cycles: 219595042 heartbeat IPC: 0.480498 cumulative IPC: 0.459271 (Simulation time: 0 hr 44 min 54 sec) 
select_counter is 985
Heartbeat CPU 0 instructions: 109000001 cycles: 221683535 heartbeat IPC: 0.478815 cumulative IPC: 0.45946 (Simulation time: 0 hr 44 min 59 sec) 
select_counter is 345
Heartbeat CPU 0 instructions: 110000001 cycles: 223711357 heartbeat IPC: 0.49314 cumulative IPC: 0.459774 (Simulation time: 0 hr 45 min 4 sec) 
select_counter is 940
Finished CPU 0 instructions: 100000000 cycles: 217498032 cummulative IPC: 0.459774 (Simulation time: 0 hr 45 min 4 sec) 

ChampSim completed all CPUs

Region of Interest Statistics

CPU 0 cummulative IPC: 0.459774 instructions: 100000000 cycles: 217498032
LLC TOTAL     ACCESS:    4478594  HIT:    1290238  MISS:    3188356
LLC LOAD      ACCESS:    2621784  HIT:     686217  MISS:    1935567
LLC RFO       ACCESS:     759949  HIT:     100910  MISS:     659039
LLC PREFETCH  ACCESS:          0  HIT:          0  MISS:          0
LLC WRITEBACK ACCESS:    1096861  HIT:     503111  MISS:     593750
Ship samples: 
5, 39, 74, 102, 136, 160, 194, 232, 260, 296, 324, 362, 387, 420, 458, 491, 526, 553, 583, 622, 648, 675, 715, 738, 769, 805, 845, 869, 899, 937, 962, 995, 1038, 1068, 1090, 1127, 1155, 1196, 1218, 1253, 1282, 1324, 1356, 1381, 1420, 1454, 1478, 1514, 1544, 1575, 1601, 1642, 1666, 1697, 1741, 1773, 1798, 1833, 1870, 1898, 1931, 1952, 1988, 2022, 
Lime duel samples: 
6, 19, 34, 51, 77, 80, 110, 113, 142, 155, 165, 183, 193, 217, 235, 249, 261, 276, 291, 315, 323, 346, 366, 380, 396, 411, 428, 446, 459, 470, 492, 498, 514, 535, 547, 567, 582, 603, 612, 636, 651, 664, 684, 688, 704, 724, 741, 763, 777, 798, 808, 818, 844, 856, 868, 883, 909, 921, 934, 956, 972, 976, 996, 1022, 1028, 1042, 1060, 1080, 1093, 1118, 1125, 1143, 1160, 1174, 1184, 1207, 1228, 1246, 1250, 1276, 1287, 1300, 1326, 1333, 1344, 1373, 1387, 1398, 1408, 1438, 1449, 1458, 1480, 1498, 1507, 1532, 1550, 1563, 1573, 1588, 1612, 1629, 1639, 1650, 1665, 1693, 1700, 1725, 1731, 1758, 1770, 1777, 1794, 1813, 1825, 1840, 1866, 1873, 1891, 1918, 1922, 1949, 1953, 1975, 1997, 2008, 2028, 2045, 
Lime samples: 
6, 110, 193, 291, 396, 492, 582, 684, 777, 868, 972, 1060, 1160, 1250, 1344, 1449, 1550, 1639, 1731, 1825, 1922, 
Insertion Distribution: 
	LOAD 110180 0 0 0 0 0 79849 844005 
	RFO 3438 0 0 0 0 0 20529 308725 
	PREF 0 0 0 0 0 0 0 0 
	WRITEBACK 0 0 0 0 0 0 0 370875 
Total Prefetch Downgrades: 0
