
*** ChampSim Multicore Out-of-Order Simulator ***

Warmup Instructions: 10000000
Simulation Instructions: 100000000
Configuration: 2
Number of CPUs: 1
LLC sets: 2048
LLC ways: 16
Off-chip DRAM Channels: 1 Width: 64-bit Data Rate: 1600 MT/s

CPU 0 runs /datasets/cs240c-wi22-a00-public/data/Assignment2-gz/wrf_1212B.trace.gz
CPU 0 L1D next line prefetcher
CPU 0 L2C IP-based stride prefetcher
Heartbeat CPU 0 instructions: 1000001 cycles: 598660 heartbeat IPC: 1.6704 cumulative IPC: 1.6704 (Simulation time: 0 hr 0 min 28 sec) 
select_counter is 524
Heartbeat CPU 0 instructions: 2000000 cycles: 1197118 heartbeat IPC: 1.67096 cumulative IPC: 1.67068 (Simulation time: 0 hr 0 min 57 sec) 
select_counter is 549
Heartbeat CPU 0 instructions: 3000001 cycles: 1795976 heartbeat IPC: 1.66985 cumulative IPC: 1.6704 (Simulation time: 0 hr 1 min 27 sec) 
select_counter is 529
Heartbeat CPU 0 instructions: 4000000 cycles: 2394087 heartbeat IPC: 1.67193 cumulative IPC: 1.67078 (Simulation time: 0 hr 1 min 54 sec) 
select_counter is 527
Heartbeat CPU 0 instructions: 5000000 cycles: 2993053 heartbeat IPC: 1.66954 cumulative IPC: 1.67054 (Simulation time: 0 hr 2 min 24 sec) 
select_counter is 531
Heartbeat CPU 0 instructions: 6000001 cycles: 3592667 heartbeat IPC: 1.66774 cumulative IPC: 1.67007 (Simulation time: 0 hr 2 min 53 sec) 
select_counter is 528
Heartbeat CPU 0 instructions: 7000001 cycles: 4190665 heartbeat IPC: 1.67225 cumulative IPC: 1.67038 (Simulation time: 0 hr 3 min 22 sec) 
select_counter is 529
Heartbeat CPU 0 instructions: 8000000 cycles: 4788873 heartbeat IPC: 1.67166 cumulative IPC: 1.67054 (Simulation time: 0 hr 3 min 50 sec) 
select_counter is 520
Heartbeat CPU 0 instructions: 9000002 cycles: 5387792 heartbeat IPC: 1.66968 cumulative IPC: 1.67044 (Simulation time: 0 hr 4 min 16 sec) 
select_counter is 500
Heartbeat CPU 0 instructions: 10000001 cycles: 5987357 heartbeat IPC: 1.66787 cumulative IPC: 1.67019 (Simulation time: 0 hr 4 min 42 sec) 
select_counter is 484

Warmup complete CPU 0 instructions: 10000001 cycles: 5987357 (Simulation time: 0 hr 4 min 42 sec) 

Heartbeat CPU 0 instructions: 11000003 cycles: 7746928 heartbeat IPC: 0.568321 cumulative IPC: 0.568321 (Simulation time: 0 hr 5 min 14 sec) 
select_counter is 469
Heartbeat CPU 0 instructions: 12000000 cycles: 9517883 heartbeat IPC: 0.564665 cumulative IPC: 0.566488 (Simulation time: 0 hr 5 min 52 sec) 
select_counter is 452
Heartbeat CPU 0 instructions: 13000000 cycles: 11304627 heartbeat IPC: 0.559677 cumulative IPC: 0.564199 (Simulation time: 0 hr 6 min 25 sec) 
select_counter is 377
Heartbeat CPU 0 instructions: 14000002 cycles: 13088598 heartbeat IPC: 0.560548 cumulative IPC: 0.563282 (Simulation time: 0 hr 6 min 59 sec) 
select_counter is 360
Heartbeat CPU 0 instructions: 15000003 cycles: 14881150 heartbeat IPC: 0.557864 cumulative IPC: 0.56219 (Simulation time: 0 hr 7 min 32 sec) 
select_counter is 319
Heartbeat CPU 0 instructions: 16000000 cycles: 16629464 heartbeat IPC: 0.571978 cumulative IPC: 0.563798 (Simulation time: 0 hr 8 min 3 sec) 
select_counter is 295
Heartbeat CPU 0 instructions: 17000000 cycles: 18410930 heartbeat IPC: 0.561335 cumulative IPC: 0.563445 (Simulation time: 0 hr 8 min 36 sec) 
select_counter is 280
Heartbeat CPU 0 instructions: 18000000 cycles: 20192524 heartbeat IPC: 0.561295 cumulative IPC: 0.563175 (Simulation time: 0 hr 9 min 12 sec) 
select_counter is 275
Heartbeat CPU 0 instructions: 19000003 cycles: 21971241 heartbeat IPC: 0.562205 cumulative IPC: 0.563067 (Simulation time: 0 hr 9 min 47 sec) 
select_counter is 262
Heartbeat CPU 0 instructions: 20000000 cycles: 23720403 heartbeat IPC: 0.571701 cumulative IPC: 0.563919 (Simulation time: 0 hr 10 min 23 sec) 
select_counter is 228
Heartbeat CPU 0 instructions: 21000001 cycles: 25487214 heartbeat IPC: 0.565992 cumulative IPC: 0.564107 (Simulation time: 0 hr 10 min 59 sec) 
select_counter is 204
Heartbeat CPU 0 instructions: 22000001 cycles: 27269864 heartbeat IPC: 0.560963 cumulative IPC: 0.563843 (Simulation time: 0 hr 11 min 35 sec) 
select_counter is 189
Heartbeat CPU 0 instructions: 23000000 cycles: 29056249 heartbeat IPC: 0.559789 cumulative IPC: 0.563529 (Simulation time: 0 hr 12 min 10 sec) 
select_counter is 187
Heartbeat CPU 0 instructions: 24000000 cycles: 30837964 heartbeat IPC: 0.561257 cumulative IPC: 0.563366 (Simulation time: 0 hr 12 min 43 sec) 
select_counter is 168
Heartbeat CPU 0 instructions: 25000002 cycles: 32584918 heartbeat IPC: 0.572426 cumulative IPC: 0.563962 (Simulation time: 0 hr 13 min 17 sec) 
select_counter is 149
Heartbeat CPU 0 instructions: 26000000 cycles: 34366978 heartbeat IPC: 0.561147 cumulative IPC: 0.563785 (Simulation time: 0 hr 13 min 51 sec) 
select_counter is 124
Heartbeat CPU 0 instructions: 27000000 cycles: 36149136 heartbeat IPC: 0.561117 cumulative IPC: 0.563627 (Simulation time: 0 hr 14 min 27 sec) 
select_counter is 107
Heartbeat CPU 0 instructions: 28000000 cycles: 37927825 heartbeat IPC: 0.562212 cumulative IPC: 0.563548 (Simulation time: 0 hr 15 min 1 sec) 
select_counter is 101
Heartbeat CPU 0 instructions: 29000000 cycles: 39676676 heartbeat IPC: 0.571804 cumulative IPC: 0.563977 (Simulation time: 0 hr 15 min 33 sec) 
select_counter is 66
Heartbeat CPU 0 instructions: 30000003 cycles: 41437623 heartbeat IPC: 0.567878 cumulative IPC: 0.564171 (Simulation time: 0 hr 16 min 6 sec) 
select_counter is 78
Heartbeat CPU 0 instructions: 31000000 cycles: 43220231 heartbeat IPC: 0.560974 cumulative IPC: 0.564018 (Simulation time: 0 hr 16 min 38 sec) 
select_counter is 53
Heartbeat CPU 0 instructions: 32000000 cycles: 45001548 heartbeat IPC: 0.561382 cumulative IPC: 0.563897 (Simulation time: 0 hr 17 min 12 sec) 
select_counter is 34
Heartbeat CPU 0 instructions: 33000000 cycles: 46785802 heartbeat IPC: 0.560458 cumulative IPC: 0.563747 (Simulation time: 0 hr 17 min 46 sec) 
select_counter is 10
Heartbeat CPU 0 instructions: 34000000 cycles: 48524474 heartbeat IPC: 0.575152 cumulative IPC: 0.564213 (Simulation time: 0 hr 18 min 24 sec) 
select_counter is 4
Heartbeat CPU 0 instructions: 35000003 cycles: 50307121 heartbeat IPC: 0.560965 cumulative IPC: 0.564082 (Simulation time: 0 hr 18 min 58 sec) 
select_counter is 1014
Heartbeat CPU 0 instructions: 36000000 cycles: 52087964 heartbeat IPC: 0.56153 cumulative IPC: 0.563984 (Simulation time: 0 hr 19 min 33 sec) 
select_counter is 1000
Heartbeat CPU 0 instructions: 37000001 cycles: 53871529 heartbeat IPC: 0.560675 cumulative IPC: 0.563861 (Simulation time: 0 hr 20 min 8 sec) 
select_counter is 993
Heartbeat CPU 0 instructions: 38000000 cycles: 55623646 heartbeat IPC: 0.570738 cumulative IPC: 0.564103 (Simulation time: 0 hr 20 min 44 sec) 
select_counter is 982
Heartbeat CPU 0 instructions: 39000000 cycles: 57378784 heartbeat IPC: 0.569756 cumulative IPC: 0.564296 (Simulation time: 0 hr 21 min 16 sec) 
select_counter is 977
Heartbeat CPU 0 instructions: 40000000 cycles: 59160390 heartbeat IPC: 0.561291 cumulative IPC: 0.564196 (Simulation time: 0 hr 21 min 51 sec) 
select_counter is 952
Heartbeat CPU 0 instructions: 41000001 cycles: 60942112 heartbeat IPC: 0.561255 cumulative IPC: 0.5641 (Simulation time: 0 hr 22 min 26 sec) 
select_counter is 955
Heartbeat CPU 0 instructions: 42000003 cycles: 62727514 heartbeat IPC: 0.560099 cumulative IPC: 0.563974 (Simulation time: 0 hr 23 min 1 sec) 
select_counter is 953
Heartbeat CPU 0 instructions: 43000001 cycles: 64455540 heartbeat IPC: 0.578694 cumulative IPC: 0.56441 (Simulation time: 0 hr 23 min 35 sec) 
select_counter is 939
Heartbeat CPU 0 instructions: 44000000 cycles: 66236398 heartbeat IPC: 0.561527 cumulative IPC: 0.564324 (Simulation time: 0 hr 24 min 10 sec) 
select_counter is 939
Heartbeat CPU 0 instructions: 45000001 cycles: 68016698 heartbeat IPC: 0.561704 cumulative IPC: 0.564249 (Simulation time: 0 hr 24 min 45 sec) 
select_counter is 945
Heartbeat CPU 0 instructions: 46000001 cycles: 69795547 heartbeat IPC: 0.562161 cumulative IPC: 0.564191 (Simulation time: 0 hr 25 min 20 sec) 
select_counter is 940
Heartbeat CPU 0 instructions: 47000000 cycles: 71550219 heartbeat IPC: 0.569907 cumulative IPC: 0.564344 (Simulation time: 0 hr 25 min 51 sec) 
select_counter is 941
Heartbeat CPU 0 instructions: 48000000 cycles: 73291888 heartbeat IPC: 0.574162 cumulative IPC: 0.564598 (Simulation time: 0 hr 26 min 25 sec) 
select_counter is 939
Heartbeat CPU 0 instructions: 49000002 cycles: 75073441 heartbeat IPC: 0.561309 cumulative IPC: 0.564513 (Simulation time: 0 hr 27 min 0 sec) 
select_counter is 928
Heartbeat CPU 0 instructions: 50000002 cycles: 76854330 heartbeat IPC: 0.561517 cumulative IPC: 0.564438 (Simulation time: 0 hr 27 min 38 sec) 
select_counter is 920
Heartbeat CPU 0 instructions: 51000002 cycles: 78655121 heartbeat IPC: 0.555312 cumulative IPC: 0.564212 (Simulation time: 0 hr 28 min 17 sec) 
select_counter is 912
Heartbeat CPU 0 instructions: 52000000 cycles: 80377767 heartbeat IPC: 0.580501 cumulative IPC: 0.564589 (Simulation time: 0 hr 28 min 53 sec) 
select_counter is 914
Heartbeat CPU 0 instructions: 53000002 cycles: 82144917 heartbeat IPC: 0.565884 cumulative IPC: 0.564619 (Simulation time: 0 hr 29 min 33 sec) 
select_counter is 925
Heartbeat CPU 0 instructions: 54000001 cycles: 83926228 heartbeat IPC: 0.561384 cumulative IPC: 0.564545 (Simulation time: 0 hr 30 min 10 sec) 
select_counter is 923
Heartbeat CPU 0 instructions: 55000000 cycles: 85707543 heartbeat IPC: 0.561382 cumulative IPC: 0.564474 (Simulation time: 0 hr 30 min 50 sec) 
select_counter is 911
Heartbeat CPU 0 instructions: 56000000 cycles: 87482661 heartbeat IPC: 0.563343 cumulative IPC: 0.56445 (Simulation time: 0 hr 31 min 25 sec) 
select_counter is 912
Heartbeat CPU 0 instructions: 57000001 cycles: 89209807 heartbeat IPC: 0.57899 cumulative IPC: 0.564751 (Simulation time: 0 hr 32 min 4 sec) 
select_counter is 914
Heartbeat CPU 0 instructions: 58000001 cycles: 90991880 heartbeat IPC: 0.561144 cumulative IPC: 0.564676 (Simulation time: 0 hr 32 min 43 sec) 
select_counter is 894
Heartbeat CPU 0 instructions: 59000000 cycles: 92774130 heartbeat IPC: 0.561088 cumulative IPC: 0.564602 (Simulation time: 0 hr 33 min 23 sec) 
select_counter is 888
Heartbeat CPU 0 instructions: 60000000 cycles: 94558271 heartbeat IPC: 0.560494 cumulative IPC: 0.564519 (Simulation time: 0 hr 34 min 1 sec) 
select_counter is 892
Heartbeat CPU 0 instructions: 61000001 cycles: 96299359 heartbeat IPC: 0.574354 cumulative IPC: 0.564709 (Simulation time: 0 hr 34 min 37 sec) 
select_counter is 896
Heartbeat CPU 0 instructions: 62000001 cycles: 98042621 heartbeat IPC: 0.573637 cumulative IPC: 0.564878 (Simulation time: 0 hr 35 min 14 sec) 
select_counter is 882
Heartbeat CPU 0 instructions: 63000002 cycles: 99828681 heartbeat IPC: 0.559892 cumulative IPC: 0.564783 (Simulation time: 0 hr 35 min 54 sec) 
select_counter is 882
Heartbeat CPU 0 instructions: 64000000 cycles: 101610908 heartbeat IPC: 0.561095 cumulative IPC: 0.564714 (Simulation time: 0 hr 36 min 32 sec) 
select_counter is 887
Heartbeat CPU 0 instructions: 65000000 cycles: 103397992 heartbeat IPC: 0.559571 cumulative IPC: 0.56462 (Simulation time: 0 hr 37 min 7 sec) 
select_counter is 875
Heartbeat CPU 0 instructions: 66000001 cycles: 105112824 heartbeat IPC: 0.583148 cumulative IPC: 0.564941 (Simulation time: 0 hr 37 min 43 sec) 
select_counter is 876
Heartbeat CPU 0 instructions: 67000002 cycles: 106869121 heartbeat IPC: 0.56938 cumulative IPC: 0.565018 (Simulation time: 0 hr 38 min 21 sec) 
select_counter is 871
Heartbeat CPU 0 instructions: 68000000 cycles: 108654050 heartbeat IPC: 0.560245 cumulative IPC: 0.564935 (Simulation time: 0 hr 38 min 58 sec) 
select_counter is 863
Heartbeat CPU 0 instructions: 69000001 cycles: 110436986 heartbeat IPC: 0.560873 cumulative IPC: 0.564866 (Simulation time: 0 hr 39 min 36 sec) 
select_counter is 865
Heartbeat CPU 0 instructions: 70000000 cycles: 112205864 heartbeat IPC: 0.56533 cumulative IPC: 0.564873 (Simulation time: 0 hr 40 min 10 sec) 
select_counter is 871
Heartbeat CPU 0 instructions: 71000001 cycles: 113921403 heartbeat IPC: 0.582908 cumulative IPC: 0.56516 (Simulation time: 0 hr 40 min 43 sec) 
select_counter is 880
Heartbeat CPU 0 instructions: 72000000 cycles: 115697653 heartbeat IPC: 0.562983 cumulative IPC: 0.565125 (Simulation time: 0 hr 41 min 17 sec) 
select_counter is 877
Heartbeat CPU 0 instructions: 73000001 cycles: 117485504 heartbeat IPC: 0.559331 cumulative IPC: 0.565032 (Simulation time: 0 hr 41 min 51 sec) 
select_counter is 868
Heartbeat CPU 0 instructions: 74000000 cycles: 119265126 heartbeat IPC: 0.561917 cumulative IPC: 0.564983 (Simulation time: 0 hr 42 min 25 sec) 
select_counter is 859
Heartbeat CPU 0 instructions: 75000002 cycles: 121021124 heartbeat IPC: 0.569478 cumulative IPC: 0.565051 (Simulation time: 0 hr 42 min 56 sec) 
select_counter is 852
Heartbeat CPU 0 instructions: 76000000 cycles: 122755404 heartbeat IPC: 0.576607 cumulative IPC: 0.565223 (Simulation time: 0 hr 43 min 29 sec) 
select_counter is 843
Heartbeat CPU 0 instructions: 77000003 cycles: 124532901 heartbeat IPC: 0.562591 cumulative IPC: 0.565184 (Simulation time: 0 hr 44 min 4 sec) 
select_counter is 842
Heartbeat CPU 0 instructions: 78000000 cycles: 126314404 heartbeat IPC: 0.561322 cumulative IPC: 0.565126 (Simulation time: 0 hr 44 min 36 sec) 
select_counter is 827
Heartbeat CPU 0 instructions: 79000000 cycles: 128111309 heartbeat IPC: 0.556512 cumulative IPC: 0.565 (Simulation time: 0 hr 45 min 7 sec) 
select_counter is 827
Heartbeat CPU 0 instructions: 80000000 cycles: 129830309 heartbeat IPC: 0.581734 cumulative IPC: 0.565232 (Simulation time: 0 hr 45 min 33 sec) 
select_counter is 838
Heartbeat CPU 0 instructions: 81000003 cycles: 131598478 heartbeat IPC: 0.565558 cumulative IPC: 0.565237 (Simulation time: 0 hr 45 min 59 sec) 
select_counter is 836
Heartbeat CPU 0 instructions: 82000002 cycles: 133391345 heartbeat IPC: 0.557765 cumulative IPC: 0.565131 (Simulation time: 0 hr 46 min 27 sec) 
select_counter is 852
Heartbeat CPU 0 instructions: 83000001 cycles: 135178973 heartbeat IPC: 0.5594 cumulative IPC: 0.565052 (Simulation time: 0 hr 46 min 51 sec) 
select_counter is 836
Heartbeat CPU 0 instructions: 84000000 cycles: 136955240 heartbeat IPC: 0.562978 cumulative IPC: 0.565024 (Simulation time: 0 hr 47 min 15 sec) 
select_counter is 843
Heartbeat CPU 0 instructions: 85000000 cycles: 138672944 heartbeat IPC: 0.582172 cumulative IPC: 0.565246 (Simulation time: 0 hr 47 min 40 sec) 
select_counter is 859
Heartbeat CPU 0 instructions: 86000001 cycles: 140458528 heartbeat IPC: 0.560041 cumulative IPC: 0.565177 (Simulation time: 0 hr 48 min 1 sec) 
select_counter is 849
Heartbeat CPU 0 instructions: 87000000 cycles: 142240682 heartbeat IPC: 0.561118 cumulative IPC: 0.565124 (Simulation time: 0 hr 48 min 24 sec) 
select_counter is 837
Heartbeat CPU 0 instructions: 88000000 cycles: 144017572 heartbeat IPC: 0.562781 cumulative IPC: 0.565094 (Simulation time: 0 hr 48 min 46 sec) 
select_counter is 833
Heartbeat CPU 0 instructions: 89000000 cycles: 145768964 heartbeat IPC: 0.570974 cumulative IPC: 0.565167 (Simulation time: 0 hr 49 min 6 sec) 
select_counter is 822
Heartbeat CPU 0 instructions: 90000000 cycles: 147524318 heartbeat IPC: 0.569686 cumulative IPC: 0.565223 (Simulation time: 0 hr 49 min 26 sec) 
select_counter is 826
Heartbeat CPU 0 instructions: 91000001 cycles: 149303148 heartbeat IPC: 0.562168 cumulative IPC: 0.565185 (Simulation time: 0 hr 49 min 45 sec) 
select_counter is 829
Heartbeat CPU 0 instructions: 92000000 cycles: 151085578 heartbeat IPC: 0.561031 cumulative IPC: 0.565134 (Simulation time: 0 hr 50 min 7 sec) 
select_counter is 826
Heartbeat CPU 0 instructions: 93000003 cycles: 152869062 heartbeat IPC: 0.560702 cumulative IPC: 0.565081 (Simulation time: 0 hr 50 min 24 sec) 
select_counter is 823
Heartbeat CPU 0 instructions: 94000001 cycles: 154595988 heartbeat IPC: 0.579062 cumulative IPC: 0.565243 (Simulation time: 0 hr 50 min 41 sec) 
select_counter is 815
Heartbeat CPU 0 instructions: 95000001 cycles: 156376124 heartbeat IPC: 0.561755 cumulative IPC: 0.565202 (Simulation time: 0 hr 50 min 58 sec) 
select_counter is 805
Heartbeat CPU 0 instructions: 96000000 cycles: 158156733 heartbeat IPC: 0.561605 cumulative IPC: 0.56516 (Simulation time: 0 hr 51 min 13 sec) 
select_counter is 799
Heartbeat CPU 0 instructions: 97000000 cycles: 159936671 heartbeat IPC: 0.561817 cumulative IPC: 0.565121 (Simulation time: 0 hr 51 min 27 sec) 
select_counter is 801
Heartbeat CPU 0 instructions: 98000000 cycles: 161697406 heartbeat IPC: 0.567945 cumulative IPC: 0.565153 (Simulation time: 0 hr 51 min 40 sec) 
select_counter is 799
Heartbeat CPU 0 instructions: 99000000 cycles: 163451848 heartbeat IPC: 0.569982 cumulative IPC: 0.565207 (Simulation time: 0 hr 51 min 53 sec) 
select_counter is 794
Heartbeat CPU 0 instructions: 100000000 cycles: 165230212 heartbeat IPC: 0.562315 cumulative IPC: 0.565174 (Simulation time: 0 hr 52 min 5 sec) 
select_counter is 783
Heartbeat CPU 0 instructions: 101000000 cycles: 167008074 heartbeat IPC: 0.562473 cumulative IPC: 0.565145 (Simulation time: 0 hr 52 min 16 sec) 
select_counter is 791
Heartbeat CPU 0 instructions: 102000003 cycles: 168797299 heartbeat IPC: 0.558903 cumulative IPC: 0.565076 (Simulation time: 0 hr 52 min 27 sec) 
select_counter is 795
Heartbeat CPU 0 instructions: 103000001 cycles: 170528940 heartbeat IPC: 0.577486 cumulative IPC: 0.565207 (Simulation time: 0 hr 52 min 38 sec) 
select_counter is 796
Heartbeat CPU 0 instructions: 104000000 cycles: 172313453 heartbeat IPC: 0.560376 cumulative IPC: 0.565155 (Simulation time: 0 hr 52 min 49 sec) 
select_counter is 796
Heartbeat CPU 0 instructions: 105000002 cycles: 174093477 heartbeat IPC: 0.561791 cumulative IPC: 0.565119 (Simulation time: 0 hr 52 min 59 sec) 
select_counter is 800
Heartbeat CPU 0 instructions: 106000001 cycles: 175870882 heartbeat IPC: 0.562617 cumulative IPC: 0.565093 (Simulation time: 0 hr 53 min 9 sec) 
select_counter is 808
Heartbeat CPU 0 instructions: 107000003 cycles: 177629890 heartbeat IPC: 0.568503 cumulative IPC: 0.565128 (Simulation time: 0 hr 53 min 19 sec) 
select_counter is 807
Heartbeat CPU 0 instructions: 108000000 cycles: 179395227 heartbeat IPC: 0.566462 cumulative IPC: 0.565142 (Simulation time: 0 hr 53 min 27 sec) 
select_counter is 804
Heartbeat CPU 0 instructions: 109000002 cycles: 181180096 heartbeat IPC: 0.560266 cumulative IPC: 0.565092 (Simulation time: 0 hr 53 min 34 sec) 
select_counter is 810
Heartbeat CPU 0 instructions: 110000003 cycles: 182958849 heartbeat IPC: 0.562192 cumulative IPC: 0.565063 (Simulation time: 0 hr 53 min 39 sec) 
select_counter is 815
Finished CPU 0 instructions: 100000002 cycles: 176971492 cummulative IPC: 0.565063 (Simulation time: 0 hr 53 min 39 sec) 

ChampSim completed all CPUs

Region of Interest Statistics

CPU 0 cummulative IPC: 0.565063 instructions: 100000002 cycles: 176971492
LLC TOTAL     ACCESS:     134545  HIT:      27653  MISS:     106892
LLC LOAD      ACCESS:      14800  HIT:       3981  MISS:      10819
LLC RFO       ACCESS:       1236  HIT:        333  MISS:        903
LLC PREFETCH  ACCESS:      79424  HIT:       8119  MISS:      71305
LLC WRITEBACK ACCESS:      39085  HIT:      15220  MISS:      23865
Ship samples: size is 64
7, 46, 74, 94, 130, 184, 194, 222, 252, 295, 335, 345, 390, 423, 448, 476, 514, 559, 572, 590, 642, 672, 705, 732, 770, 807, 838, 856, 899, 943, 960, 981, 1014, 1057, 1083, 1097, 1154, 1188, 1201, 1221, 1276, 1320, 1337, 1361, 1393, 1447, 1463, 1477, 1523, 1555, 1584, 1614, 1650, 1683, 1720, 1736, 1782, 1816, 1834, 1866, 1901, 1937, 1958, 1985, 
Ship duel samples: size is 96
7, 22, 46, 74, 94, 109, 130, 155, 184, 194, 222, 241, 252, 286, 295, 335, 345, 366, 390, 417, 423, 448, 476, 495, 514, 545, 559, 572, 590, 623, 642, 667, 672, 705, 732, 749, 770, 782, 807, 838, 856, 878, 899, 911, 943, 960, 981, 992, 1014, 1041, 1057, 1083, 1097, 1132, 1154, 1158, 1188, 1201, 1221, 1242, 1276, 1286, 1320, 1337, 1361, 1380, 1393, 1417, 1447, 1463, 1477, 1505, 1523, 1536, 1555, 1584, 1614, 1631, 1650, 1661, 1683, 1720, 1736, 1750, 1782, 1798, 1816, 1834, 1866, 1877, 1901, 1928, 1937, 1958, 1985, 1995, 
Lime duel samples: size is 96
18, 25, 54, 79, 98, 121, 142, 157, 183, 196, 227, 242, 269, 278, 311, 316, 342, 373, 397, 409, 421, 444, 474, 484, 517, 533, 556, 575, 595, 615, 649, 655, 682, 703, 733, 737, 761, 791, 808, 837, 841, 867, 888, 921, 933, 947, 983, 1003, 1025, 1044, 1053, 1087, 1111, 1128, 1151, 1164, 1179, 1204, 1235, 1249, 1271, 1294, 1316, 1342, 1344, 1377, 1405, 1412, 1434, 1457, 1470, 1496, 1527, 1539, 1554, 1578, 1602, 1634, 1655, 1659, 1692, 1721, 1739, 1751, 1779, 1796, 1823, 1843, 1864, 1880, 1895, 1917, 1933, 1970, 1977, 1996, 
Lime samples: size is 15
18, 142, 269, 397, 517, 649, 761, 888, 1025, 1151, 1271, 1405, 1527, 1655, 1779, 
Insertion Distribution: 
	LOAD 113 0 0 0 0 0 3004 75 
	RFO 0 0 0 0 0 0 271 7 
	PREF 0 0 0 0 0 0 16402 3501 
	WRITEBACK 0 0 0 0 0 0 0 2504 
Total Prefetch Downgrades: 121
