
*** ChampSim Multicore Out-of-Order Simulator ***

Warmup Instructions: 10000000
Simulation Instructions: 100000000
Configuration: 2
Number of CPUs: 1
LLC sets: 2048
LLC ways: 16
Off-chip DRAM Channels: 1 Width: 64-bit Data Rate: 1600 MT/s

CPU 0 runs /datasets/cs240c-wi22-a00-public/data/Assignment2-gz/milc_409B.trace.gz
CPU 0 L1D next line prefetcher
CPU 0 L2C IP-based stride prefetcher
Heartbeat CPU 0 instructions: 1000002 cycles: 407040 heartbeat IPC: 2.45677 cumulative IPC: 2.45677 (Simulation time: 0 hr 0 min 24 sec) 
select_counter is 525
Heartbeat CPU 0 instructions: 2000002 cycles: 889868 heartbeat IPC: 2.07113 cumulative IPC: 2.24753 (Simulation time: 0 hr 0 min 50 sec) 
select_counter is 666
Heartbeat CPU 0 instructions: 3000003 cycles: 1672035 heartbeat IPC: 1.2785 cumulative IPC: 1.79422 (Simulation time: 0 hr 1 min 24 sec) 
select_counter is 1021
Heartbeat CPU 0 instructions: 4000000 cycles: 2454292 heartbeat IPC: 1.27835 cumulative IPC: 1.6298 (Simulation time: 0 hr 1 min 57 sec) 
select_counter is 1019
Heartbeat CPU 0 instructions: 5000000 cycles: 3135413 heartbeat IPC: 1.46817 cumulative IPC: 1.59469 (Simulation time: 0 hr 2 min 26 sec) 
select_counter is 720
Heartbeat CPU 0 instructions: 6000003 cycles: 3679805 heartbeat IPC: 1.83692 cumulative IPC: 1.63052 (Simulation time: 0 hr 2 min 53 sec) 
select_counter is 253
Heartbeat CPU 0 instructions: 7000002 cycles: 4224111 heartbeat IPC: 1.8372 cumulative IPC: 1.65715 (Simulation time: 0 hr 3 min 22 sec) 
select_counter is 770
Heartbeat CPU 0 instructions: 8000000 cycles: 4768519 heartbeat IPC: 1.83685 cumulative IPC: 1.67767 (Simulation time: 0 hr 3 min 46 sec) 
select_counter is 308
Heartbeat CPU 0 instructions: 9000003 cycles: 5312845 heartbeat IPC: 1.83714 cumulative IPC: 1.69401 (Simulation time: 0 hr 4 min 10 sec) 
select_counter is 898
Heartbeat CPU 0 instructions: 10000000 cycles: 5857233 heartbeat IPC: 1.83692 cumulative IPC: 1.70729 (Simulation time: 0 hr 4 min 35 sec) 
select_counter is 405

Warmup complete CPU 0 instructions: 10000002 cycles: 5857234 (Simulation time: 0 hr 4 min 35 sec) 

Heartbeat CPU 0 instructions: 11000002 cycles: 7523007 heartbeat IPC: 0.600323 cumulative IPC: 0.600322 (Simulation time: 0 hr 5 min 4 sec) 
select_counter is 167
Heartbeat CPU 0 instructions: 12000000 cycles: 9186871 heartbeat IPC: 0.601009 cumulative IPC: 0.600665 (Simulation time: 0 hr 5 min 32 sec) 
select_counter is 958
Heartbeat CPU 0 instructions: 13000003 cycles: 10848569 heartbeat IPC: 0.601796 cumulative IPC: 0.601042 (Simulation time: 0 hr 6 min 3 sec) 
select_counter is 443
Heartbeat CPU 0 instructions: 14000002 cycles: 12503763 heartbeat IPC: 0.604158 cumulative IPC: 0.601818 (Simulation time: 0 hr 6 min 31 sec) 
select_counter is 962
Heartbeat CPU 0 instructions: 15000001 cycles: 14161880 heartbeat IPC: 0.603093 cumulative IPC: 0.602072 (Simulation time: 0 hr 6 min 58 sec) 
select_counter is 464
Heartbeat CPU 0 instructions: 16000000 cycles: 15821628 heartbeat IPC: 0.6025 cumulative IPC: 0.602144 (Simulation time: 0 hr 7 min 27 sec) 
select_counter is 993
Heartbeat CPU 0 instructions: 17000002 cycles: 17479277 heartbeat IPC: 0.603265 cumulative IPC: 0.602304 (Simulation time: 0 hr 7 min 56 sec) 
select_counter is 490
Heartbeat CPU 0 instructions: 18000000 cycles: 19135626 heartbeat IPC: 0.603736 cumulative IPC: 0.602482 (Simulation time: 0 hr 8 min 24 sec) 
select_counter is 69
Heartbeat CPU 0 instructions: 19000003 cycles: 20793542 heartbeat IPC: 0.603169 cumulative IPC: 0.602559 (Simulation time: 0 hr 8 min 52 sec) 
select_counter is 658
Heartbeat CPU 0 instructions: 20000000 cycles: 22450655 heartbeat IPC: 0.603457 cumulative IPC: 0.602648 (Simulation time: 0 hr 9 min 21 sec) 
select_counter is 156
Heartbeat CPU 0 instructions: 21000001 cycles: 24106327 heartbeat IPC: 0.603985 cumulative IPC: 0.60277 (Simulation time: 0 hr 9 min 50 sec) 
select_counter is 742
Heartbeat CPU 0 instructions: 22000002 cycles: 25769636 heartbeat IPC: 0.601212 cumulative IPC: 0.602639 (Simulation time: 0 hr 10 min 17 sec) 
select_counter is 252
Heartbeat CPU 0 instructions: 23000002 cycles: 27428848 heartbeat IPC: 0.602696 cumulative IPC: 0.602644 (Simulation time: 0 hr 10 min 47 sec) 
select_counter is 833
Heartbeat CPU 0 instructions: 24000000 cycles: 29085122 heartbeat IPC: 0.603764 cumulative IPC: 0.602724 (Simulation time: 0 hr 11 min 14 sec) 
select_counter is 371
Heartbeat CPU 0 instructions: 25000002 cycles: 30744245 heartbeat IPC: 0.602729 cumulative IPC: 0.602724 (Simulation time: 0 hr 11 min 43 sec) 
select_counter is 943
Heartbeat CPU 0 instructions: 26000000 cycles: 32402565 heartbeat IPC: 0.603019 cumulative IPC: 0.602742 (Simulation time: 0 hr 12 min 10 sec) 
select_counter is 434
Heartbeat CPU 0 instructions: 27000002 cycles: 34056826 heartbeat IPC: 0.604501 cumulative IPC: 0.602846 (Simulation time: 0 hr 12 min 38 sec) 
select_counter is 932
Heartbeat CPU 0 instructions: 28000000 cycles: 35715109 heartbeat IPC: 0.603032 cumulative IPC: 0.602856 (Simulation time: 0 hr 13 min 8 sec) 
select_counter is 503
Heartbeat CPU 0 instructions: 29000002 cycles: 37363495 heartbeat IPC: 0.606655 cumulative IPC: 0.603055 (Simulation time: 0 hr 13 min 37 sec) 
select_counter is 43
Heartbeat CPU 0 instructions: 30000000 cycles: 39020396 heartbeat IPC: 0.603535 cumulative IPC: 0.603079 (Simulation time: 0 hr 14 min 8 sec) 
select_counter is 564
Heartbeat CPU 0 instructions: 31000000 cycles: 40680882 heartbeat IPC: 0.602233 cumulative IPC: 0.603038 (Simulation time: 0 hr 14 min 36 sec) 
select_counter is 54
Heartbeat CPU 0 instructions: 32000000 cycles: 42340758 heartbeat IPC: 0.602455 cumulative IPC: 0.603012 (Simulation time: 0 hr 15 min 5 sec) 
select_counter is 634
Heartbeat CPU 0 instructions: 33000000 cycles: 44001145 heartbeat IPC: 0.602269 cumulative IPC: 0.60298 (Simulation time: 0 hr 15 min 33 sec) 
select_counter is 163
Heartbeat CPU 0 instructions: 34000000 cycles: 45660441 heartbeat IPC: 0.602665 cumulative IPC: 0.602966 (Simulation time: 0 hr 16 min 1 sec) 
select_counter is 748
Heartbeat CPU 0 instructions: 35000002 cycles: 47315632 heartbeat IPC: 0.604161 cumulative IPC: 0.603014 (Simulation time: 0 hr 16 min 29 sec) 
select_counter is 343
Heartbeat CPU 0 instructions: 36000000 cycles: 48972829 heartbeat IPC: 0.603427 cumulative IPC: 0.60303 (Simulation time: 0 hr 16 min 57 sec) 
select_counter is 893
Heartbeat CPU 0 instructions: 37000000 cycles: 50631923 heartbeat IPC: 0.602739 cumulative IPC: 0.603019 (Simulation time: 0 hr 17 min 27 sec) 
select_counter is 419
Heartbeat CPU 0 instructions: 38000002 cycles: 52284453 heartbeat IPC: 0.605134 cumulative IPC: 0.603095 (Simulation time: 0 hr 17 min 54 sec) 
select_counter is 956
Heartbeat CPU 0 instructions: 39000001 cycles: 53943631 heartbeat IPC: 0.602708 cumulative IPC: 0.603081 (Simulation time: 0 hr 18 min 22 sec) 
select_counter is 508
Heartbeat CPU 0 instructions: 40000000 cycles: 55601488 heartbeat IPC: 0.603188 cumulative IPC: 0.603085 (Simulation time: 0 hr 18 min 50 sec) 
select_counter is 30
Heartbeat CPU 0 instructions: 41000002 cycles: 57256072 heartbeat IPC: 0.604383 cumulative IPC: 0.603126 (Simulation time: 0 hr 19 min 21 sec) 
select_counter is 537
Heartbeat CPU 0 instructions: 42000001 cycles: 58911179 heartbeat IPC: 0.60419 cumulative IPC: 0.60316 (Simulation time: 0 hr 19 min 47 sec) 
select_counter is 972
Heartbeat CPU 0 instructions: 43000000 cycles: 60568636 heartbeat IPC: 0.603333 cumulative IPC: 0.603165 (Simulation time: 0 hr 20 min 15 sec) 
select_counter is 538
Heartbeat CPU 0 instructions: 44000000 cycles: 62234250 heartbeat IPC: 0.600379 cumulative IPC: 0.603083 (Simulation time: 0 hr 20 min 46 sec) 
select_counter is 67
Heartbeat CPU 0 instructions: 45000000 cycles: 63891022 heartbeat IPC: 0.603583 cumulative IPC: 0.603097 (Simulation time: 0 hr 21 min 17 sec) 
select_counter is 578
Heartbeat CPU 0 instructions: 46000000 cycles: 65548669 heartbeat IPC: 0.603265 cumulative IPC: 0.603102 (Simulation time: 0 hr 21 min 45 sec) 
select_counter is 88
Heartbeat CPU 0 instructions: 47000002 cycles: 67203801 heartbeat IPC: 0.604183 cumulative IPC: 0.603131 (Simulation time: 0 hr 22 min 15 sec) 
select_counter is 560
Heartbeat CPU 0 instructions: 48000000 cycles: 68861068 heartbeat IPC: 0.603402 cumulative IPC: 0.603138 (Simulation time: 0 hr 22 min 46 sec) 
select_counter is 77
Heartbeat CPU 0 instructions: 49000000 cycles: 70515262 heartbeat IPC: 0.604524 cumulative IPC: 0.603173 (Simulation time: 0 hr 23 min 16 sec) 
select_counter is 661
Heartbeat CPU 0 instructions: 50000001 cycles: 72171399 heartbeat IPC: 0.603815 cumulative IPC: 0.603189 (Simulation time: 0 hr 23 min 45 sec) 
select_counter is 162
Heartbeat CPU 0 instructions: 51000002 cycles: 73827343 heartbeat IPC: 0.603886 cumulative IPC: 0.603206 (Simulation time: 0 hr 24 min 16 sec) 
select_counter is 735
Heartbeat CPU 0 instructions: 52000000 cycles: 75956992 heartbeat IPC: 0.46956 cumulative IPC: 0.599146 (Simulation time: 0 hr 24 min 47 sec) 
select_counter is 145
Heartbeat CPU 0 instructions: 53000001 cycles: 78099781 heartbeat IPC: 0.466682 cumulative IPC: 0.595217 (Simulation time: 0 hr 25 min 21 sec) 
select_counter is 941
Heartbeat CPU 0 instructions: 54000001 cycles: 80238520 heartbeat IPC: 0.467565 cumulative IPC: 0.591547 (Simulation time: 0 hr 25 min 55 sec) 
select_counter is 968
Heartbeat CPU 0 instructions: 55000002 cycles: 82405035 heartbeat IPC: 0.461571 cumulative IPC: 0.587868 (Simulation time: 0 hr 26 min 33 sec) 
select_counter is 1023
Heartbeat CPU 0 instructions: 56000000 cycles: 84560865 heartbeat IPC: 0.463858 cumulative IPC: 0.584471 (Simulation time: 0 hr 27 min 8 sec) 
select_counter is 1022
Heartbeat CPU 0 instructions: 57000000 cycles: 86710269 heartbeat IPC: 0.465245 cumulative IPC: 0.581302 (Simulation time: 0 hr 27 min 45 sec) 
select_counter is 988
Heartbeat CPU 0 instructions: 58000002 cycles: 88794039 heartbeat IPC: 0.4799 cumulative IPC: 0.578754 (Simulation time: 0 hr 28 min 21 sec) 
select_counter is 984
Heartbeat CPU 0 instructions: 59000001 cycles: 90566057 heartbeat IPC: 0.564328 cumulative IPC: 0.578452 (Simulation time: 0 hr 28 min 52 sec) 
select_counter is 540
Heartbeat CPU 0 instructions: 60000000 cycles: 92233359 heartbeat IPC: 0.599771 cumulative IPC: 0.578864 (Simulation time: 0 hr 29 min 22 sec) 
select_counter is 1010
Heartbeat CPU 0 instructions: 61000000 cycles: 93899768 heartbeat IPC: 0.600093 cumulative IPC: 0.579265 (Simulation time: 0 hr 29 min 54 sec) 
select_counter is 442
Heartbeat CPU 0 instructions: 62000000 cycles: 95560605 heartbeat IPC: 0.602106 cumulative IPC: 0.579688 (Simulation time: 0 hr 30 min 24 sec) 
select_counter is 900
Heartbeat CPU 0 instructions: 63000003 cycles: 97227200 heartbeat IPC: 0.600028 cumulative IPC: 0.580059 (Simulation time: 0 hr 30 min 56 sec) 
select_counter is 414
Heartbeat CPU 0 instructions: 64000000 cycles: 98893700 heartbeat IPC: 0.600058 cumulative IPC: 0.580418 (Simulation time: 0 hr 31 min 24 sec) 
select_counter is 904
Heartbeat CPU 0 instructions: 65000002 cycles: 100562923 heartbeat IPC: 0.599082 cumulative IPC: 0.580747 (Simulation time: 0 hr 31 min 55 sec) 
select_counter is 388
Heartbeat CPU 0 instructions: 66000002 cycles: 102230773 heartbeat IPC: 0.599574 cumulative IPC: 0.581072 (Simulation time: 0 hr 32 min 25 sec) 
select_counter is 48
Heartbeat CPU 0 instructions: 67000001 cycles: 103896946 heartbeat IPC: 0.600177 cumulative IPC: 0.581397 (Simulation time: 0 hr 32 min 56 sec) 
select_counter is 530
Heartbeat CPU 0 instructions: 68000000 cycles: 105562768 heartbeat IPC: 0.600304 cumulative IPC: 0.581713 (Simulation time: 0 hr 33 min 26 sec) 
select_counter is 26
Heartbeat CPU 0 instructions: 69000000 cycles: 107233735 heartbeat IPC: 0.598456 cumulative IPC: 0.581989 (Simulation time: 0 hr 33 min 54 sec) 
select_counter is 540
Heartbeat CPU 0 instructions: 70000000 cycles: 108903276 heartbeat IPC: 0.598967 cumulative IPC: 0.582264 (Simulation time: 0 hr 34 min 25 sec) 
select_counter is 81
Heartbeat CPU 0 instructions: 71000002 cycles: 110572369 heartbeat IPC: 0.599129 cumulative IPC: 0.582533 (Simulation time: 0 hr 34 min 54 sec) 
select_counter is 581
Heartbeat CPU 0 instructions: 72000000 cycles: 112239450 heartbeat IPC: 0.59985 cumulative IPC: 0.582804 (Simulation time: 0 hr 35 min 25 sec) 
select_counter is 177
Heartbeat CPU 0 instructions: 73000003 cycles: 113906415 heartbeat IPC: 0.599894 cumulative IPC: 0.583068 (Simulation time: 0 hr 35 min 54 sec) 
select_counter is 744
Heartbeat CPU 0 instructions: 74000002 cycles: 115578886 heartbeat IPC: 0.597917 cumulative IPC: 0.583294 (Simulation time: 0 hr 36 min 25 sec) 
select_counter is 270
Heartbeat CPU 0 instructions: 75000003 cycles: 117244227 heartbeat IPC: 0.600478 cumulative IPC: 0.583551 (Simulation time: 0 hr 36 min 55 sec) 
select_counter is 739
Heartbeat CPU 0 instructions: 76000000 cycles: 118915060 heartbeat IPC: 0.598502 cumulative IPC: 0.583772 (Simulation time: 0 hr 37 min 26 sec) 
select_counter is 324
Heartbeat CPU 0 instructions: 77000003 cycles: 120588336 heartbeat IPC: 0.597632 cumulative IPC: 0.583974 (Simulation time: 0 hr 37 min 55 sec) 
select_counter is 895
Heartbeat CPU 0 instructions: 78000000 cycles: 122257799 heartbeat IPC: 0.598993 cumulative IPC: 0.58419 (Simulation time: 0 hr 38 min 24 sec) 
select_counter is 442
Heartbeat CPU 0 instructions: 79000000 cycles: 123934055 heartbeat IPC: 0.596568 cumulative IPC: 0.584365 (Simulation time: 0 hr 38 min 55 sec) 
select_counter is 1002
Heartbeat CPU 0 instructions: 80000000 cycles: 125603047 heartbeat IPC: 0.599164 cumulative IPC: 0.584572 (Simulation time: 0 hr 39 min 24 sec) 
select_counter is 432
Heartbeat CPU 0 instructions: 81000000 cycles: 127271502 heartbeat IPC: 0.599357 cumulative IPC: 0.584775 (Simulation time: 0 hr 39 min 52 sec) 
select_counter is 1014
Heartbeat CPU 0 instructions: 82000002 cycles: 128933743 heartbeat IPC: 0.601599 cumulative IPC: 0.585002 (Simulation time: 0 hr 40 min 19 sec) 
select_counter is 577
Heartbeat CPU 0 instructions: 83000003 cycles: 130592702 heartbeat IPC: 0.602788 cumulative IPC: 0.585239 (Simulation time: 0 hr 40 min 45 sec) 
select_counter is 77
Heartbeat CPU 0 instructions: 84000000 cycles: 132252814 heartbeat IPC: 0.602367 cumulative IPC: 0.585464 (Simulation time: 0 hr 41 min 13 sec) 
select_counter is 576
Heartbeat CPU 0 instructions: 85000001 cycles: 133915515 heartbeat IPC: 0.601432 cumulative IPC: 0.585671 (Simulation time: 0 hr 41 min 40 sec) 
select_counter is 138
Heartbeat CPU 0 instructions: 86000002 cycles: 135580535 heartbeat IPC: 0.600594 cumulative IPC: 0.585862 (Simulation time: 0 hr 42 min 8 sec) 
select_counter is 651
Heartbeat CPU 0 instructions: 87000003 cycles: 137246450 heartbeat IPC: 0.600271 cumulative IPC: 0.586045 (Simulation time: 0 hr 42 min 36 sec) 
select_counter is 210
Heartbeat CPU 0 instructions: 88000000 cycles: 138909071 heartbeat IPC: 0.601458 cumulative IPC: 0.586238 (Simulation time: 0 hr 43 min 1 sec) 
select_counter is 789
Heartbeat CPU 0 instructions: 89000001 cycles: 140570414 heartbeat IPC: 0.601923 cumulative IPC: 0.586431 (Simulation time: 0 hr 43 min 30 sec) 
select_counter is 368
Heartbeat CPU 0 instructions: 90000002 cycles: 142240053 heartbeat IPC: 0.598932 cumulative IPC: 0.586584 (Simulation time: 0 hr 43 min 57 sec) 
select_counter is 885
Heartbeat CPU 0 instructions: 91000000 cycles: 143898557 heartbeat IPC: 0.602952 cumulative IPC: 0.586781 (Simulation time: 0 hr 44 min 22 sec) 
select_counter is 426
Heartbeat CPU 0 instructions: 92000000 cycles: 145559380 heartbeat IPC: 0.602111 cumulative IPC: 0.586963 (Simulation time: 0 hr 44 min 45 sec) 
select_counter is 970
Heartbeat CPU 0 instructions: 93000003 cycles: 147221840 heartbeat IPC: 0.60152 cumulative IPC: 0.587134 (Simulation time: 0 hr 45 min 10 sec) 
select_counter is 504
Heartbeat CPU 0 instructions: 94000002 cycles: 148885949 heartbeat IPC: 0.600922 cumulative IPC: 0.587295 (Simulation time: 0 hr 45 min 33 sec) 
select_counter is 23
Heartbeat CPU 0 instructions: 95000003 cycles: 150546922 heartbeat IPC: 0.602057 cumulative IPC: 0.587464 (Simulation time: 0 hr 45 min 54 sec) 
select_counter is 443
Heartbeat CPU 0 instructions: 96000000 cycles: 152210839 heartbeat IPC: 0.60099 cumulative IPC: 0.587618 (Simulation time: 0 hr 46 min 14 sec) 
select_counter is 980
Heartbeat CPU 0 instructions: 97000001 cycles: 153876205 heartbeat IPC: 0.600469 cumulative IPC: 0.587762 (Simulation time: 0 hr 46 min 34 sec) 
select_counter is 530
Heartbeat CPU 0 instructions: 98000002 cycles: 155542783 heartbeat IPC: 0.600033 cumulative IPC: 0.587899 (Simulation time: 0 hr 46 min 51 sec) 
select_counter is 55
Heartbeat CPU 0 instructions: 99000003 cycles: 157207304 heartbeat IPC: 0.600774 cumulative IPC: 0.588041 (Simulation time: 0 hr 47 min 12 sec) 
select_counter is 558
Heartbeat CPU 0 instructions: 100000000 cycles: 158870795 heartbeat IPC: 0.601144 cumulative IPC: 0.588183 (Simulation time: 0 hr 47 min 32 sec) 
select_counter is 10
Heartbeat CPU 0 instructions: 101000001 cycles: 160531550 heartbeat IPC: 0.602136 cumulative IPC: 0.588333 (Simulation time: 0 hr 47 min 50 sec) 
select_counter is 570
Heartbeat CPU 0 instructions: 102000002 cycles: 162191378 heartbeat IPC: 0.602473 cumulative IPC: 0.588483 (Simulation time: 0 hr 48 min 9 sec) 
select_counter is 104
Heartbeat CPU 0 instructions: 103000000 cycles: 163857635 heartbeat IPC: 0.600146 cumulative IPC: 0.588606 (Simulation time: 0 hr 48 min 26 sec) 
select_counter is 689
Heartbeat CPU 0 instructions: 104000000 cycles: 165519679 heartbeat IPC: 0.601669 cumulative IPC: 0.588742 (Simulation time: 0 hr 48 min 43 sec) 
select_counter is 238
Heartbeat CPU 0 instructions: 105000003 cycles: 167413935 heartbeat IPC: 0.527913 cumulative IPC: 0.588029 (Simulation time: 0 hr 49 min 1 sec) 
select_counter is 958
Heartbeat CPU 0 instructions: 106000003 cycles: 171697488 heartbeat IPC: 0.233451 cumulative IPC: 0.57887 (Simulation time: 0 hr 49 min 29 sec) 
select_counter is 1020
Heartbeat CPU 0 instructions: 107000000 cycles: 173484115 heartbeat IPC: 0.559712 cumulative IPC: 0.578666 (Simulation time: 0 hr 49 min 43 sec) 
select_counter is 988
Heartbeat CPU 0 instructions: 108000000 cycles: 175266161 heartbeat IPC: 0.561153 cumulative IPC: 0.578482 (Simulation time: 0 hr 49 min 57 sec) 
select_counter is 912
Heartbeat CPU 0 instructions: 109000001 cycles: 177054973 heartbeat IPC: 0.559031 cumulative IPC: 0.578279 (Simulation time: 0 hr 50 min 10 sec) 
select_counter is 1022
Heartbeat CPU 0 instructions: 110000001 cycles: 178839992 heartbeat IPC: 0.560218 cumulative IPC: 0.578092 (Simulation time: 0 hr 50 min 22 sec) 
select_counter is 1023
Finished CPU 0 instructions: 100000003 cycles: 172982759 cummulative IPC: 0.578092 (Simulation time: 0 hr 50 min 22 sec) 

ChampSim completed all CPUs

Region of Interest Statistics

CPU 0 cummulative IPC: 0.578092 instructions: 100000003 cycles: 172982759
LLC TOTAL     ACCESS:    3300884  HIT:     459161  MISS:    2841723
LLC LOAD      ACCESS:     971731  HIT:        440  MISS:     971291
LLC RFO       ACCESS:     136847  HIT:        408  MISS:     136439
LLC PREFETCH  ACCESS:    1334217  HIT:      14758  MISS:    1319459
LLC WRITEBACK ACCESS:     858089  HIT:     443555  MISS:     414534
Ship samples: size is 64
8, 58, 72, 89, 135, 182, 193, 210, 268, 308, 324, 338, 391, 425, 445, 475, 519, 546, 581, 596, 640, 692, 696, 718, 759, 808, 834, 855, 892, 937, 947, 984, 1019, 1060, 1084, 1112, 1141, 1196, 1197, 1238, 1268, 1303, 1334, 1364, 1400, 1440, 1458, 1473, 1524, 1573, 1585, 1604, 1638, 1691, 1712, 1734, 1767, 1823, 1829, 1861, 1906, 1944, 1967, 1991, 
Ship duel samples: size is 96
8, 35, 58, 72, 89, 107, 135, 155, 182, 193, 210, 247, 268, 280, 308, 324, 338, 360, 391, 413, 425, 445, 475, 496, 519, 540, 546, 581, 596, 614, 640, 667, 692, 696, 718, 737, 759, 790, 808, 834, 855, 869, 892, 914, 937, 947, 984, 992, 1019, 1035, 1060, 1084, 1112, 1113, 1141, 1167, 1196, 1197, 1238, 1243, 1268, 1297, 1303, 1334, 1364, 1369, 1400, 1418, 1440, 1458, 1473, 1508, 1524, 1546, 1573, 1585, 1604, 1620, 1638, 1673, 1691, 1712, 1734, 1760, 1767, 1794, 1823, 1829, 1861, 1872, 1906, 1926, 1944, 1967, 1991, 1999, 
Lime duel samples: size is 96
19, 40, 62, 81, 103, 123, 127, 158, 172, 204, 223, 232, 270, 289, 300, 316, 342, 361, 383, 418, 440, 450, 466, 483, 505, 543, 562, 578, 601, 627, 641, 660, 688, 701, 720, 749, 760, 784, 800, 827, 860, 876, 889, 921, 934, 957, 985, 1002, 1024, 1032, 1063, 1086, 1103, 1128, 1147, 1165, 1188, 1203, 1218, 1241, 1263, 1290, 1313, 1341, 1362, 1381, 1395, 1408, 1428, 1461, 1477, 1491, 1516, 1545, 1570, 1588, 1599, 1631, 1645, 1678, 1696, 1719, 1733, 1747, 1776, 1787, 1818, 1828, 1856, 1881, 1894, 1921, 1933, 1968, 1981, 2012, 
Lime samples: size is 15
19, 127, 270, 383, 505, 641, 760, 889, 1024, 1147, 1263, 1395, 1516, 1645, 1776, 
Insertion Distribution: 
	LOAD 0 0 0 0 0 0 170174 304220 
	RFO 0 0 0 0 0 0 2769 11707 
	PREF 0 0 0 0 0 0 23910 578850 
	WRITEBACK 0 0 0 0 0 0 0 170279 
Total Prefetch Downgrades: 47
