
*** ChampSim Multicore Out-of-Order Simulator ***

Warmup Instructions: 10000000
Simulation Instructions: 100000000
Configuration: 2
Number of CPUs: 1
LLC sets: 2048
LLC ways: 16
Off-chip DRAM Channels: 1 Width: 64-bit Data Rate: 1600 MT/s

CPU 0 runs /datasets/cs240c-wi22-a00-public/data/Assignment2-gz/zeusmp_100B.trace.gz
CPU 0 L1D next line prefetcher
CPU 0 L2C IP-based stride prefetcher
Heartbeat CPU 0 instructions: 1000002 cycles: 462676 heartbeat IPC: 2.16134 cumulative IPC: 2.16134 (Simulation time: 0 hr 0 min 20 sec) 
select_counter is 428
Heartbeat CPU 0 instructions: 2000001 cycles: 925465 heartbeat IPC: 2.16081 cumulative IPC: 2.16108 (Simulation time: 0 hr 0 min 42 sec) 
select_counter is 377
Heartbeat CPU 0 instructions: 3000003 cycles: 1388525 heartbeat IPC: 2.15955 cumulative IPC: 2.16057 (Simulation time: 0 hr 1 min 3 sec) 
select_counter is 261
Heartbeat CPU 0 instructions: 4000000 cycles: 1851247 heartbeat IPC: 2.16112 cumulative IPC: 2.16071 (Simulation time: 0 hr 1 min 26 sec) 
select_counter is 153
Heartbeat CPU 0 instructions: 5000003 cycles: 2314184 heartbeat IPC: 2.16013 cumulative IPC: 2.16059 (Simulation time: 0 hr 1 min 48 sec) 
select_counter is 46
Heartbeat CPU 0 instructions: 6000001 cycles: 2777061 heartbeat IPC: 2.1604 cumulative IPC: 2.16056 (Simulation time: 0 hr 2 min 9 sec) 
select_counter is 39
Heartbeat CPU 0 instructions: 7000001 cycles: 3239778 heartbeat IPC: 2.16115 cumulative IPC: 2.16064 (Simulation time: 0 hr 2 min 31 sec) 
select_counter is 948
Heartbeat CPU 0 instructions: 8000000 cycles: 3702641 heartbeat IPC: 2.16046 cumulative IPC: 2.16062 (Simulation time: 0 hr 2 min 54 sec) 
select_counter is 929
Heartbeat CPU 0 instructions: 9000003 cycles: 4165442 heartbeat IPC: 2.16076 cumulative IPC: 2.16064 (Simulation time: 0 hr 3 min 17 sec) 
select_counter is 823
Heartbeat CPU 0 instructions: 10000001 cycles: 4628765 heartbeat IPC: 2.15832 cumulative IPC: 2.1604 (Simulation time: 0 hr 3 min 39 sec) 
select_counter is 772

Warmup complete CPU 0 instructions: 10000001 cycles: 4628765 (Simulation time: 0 hr 3 min 39 sec) 

Heartbeat CPU 0 instructions: 11000000 cycles: 5317149 heartbeat IPC: 1.45268 cumulative IPC: 1.45268 (Simulation time: 0 hr 4 min 4 sec) 
select_counter is 917
Heartbeat CPU 0 instructions: 12000000 cycles: 6013159 heartbeat IPC: 1.43676 cumulative IPC: 1.44467 (Simulation time: 0 hr 4 min 29 sec) 
select_counter is 950
Heartbeat CPU 0 instructions: 13000001 cycles: 6737369 heartbeat IPC: 1.38082 cumulative IPC: 1.42274 (Simulation time: 0 hr 4 min 53 sec) 
select_counter is 950
Heartbeat CPU 0 instructions: 14000003 cycles: 7469255 heartbeat IPC: 1.36634 cumulative IPC: 1.40821 (Simulation time: 0 hr 5 min 17 sec) 
select_counter is 911
Heartbeat CPU 0 instructions: 15000002 cycles: 8184774 heartbeat IPC: 1.39759 cumulative IPC: 1.40607 (Simulation time: 0 hr 5 min 40 sec) 
select_counter is 836
Heartbeat CPU 0 instructions: 16000000 cycles: 8889973 heartbeat IPC: 1.41804 cumulative IPC: 1.40805 (Simulation time: 0 hr 6 min 4 sec) 
select_counter is 864
Heartbeat CPU 0 instructions: 17000003 cycles: 9674858 heartbeat IPC: 1.27408 cumulative IPC: 1.38721 (Simulation time: 0 hr 6 min 27 sec) 
select_counter is 842
Heartbeat CPU 0 instructions: 18000000 cycles: 10370312 heartbeat IPC: 1.43791 cumulative IPC: 1.39335 (Simulation time: 0 hr 6 min 52 sec) 
select_counter is 850
Heartbeat CPU 0 instructions: 19000002 cycles: 11072683 heartbeat IPC: 1.42375 cumulative IPC: 1.39667 (Simulation time: 0 hr 7 min 15 sec) 
select_counter is 851
Heartbeat CPU 0 instructions: 20000000 cycles: 11765310 heartbeat IPC: 1.44378 cumulative IPC: 1.40124 (Simulation time: 0 hr 7 min 39 sec) 
select_counter is 926
Heartbeat CPU 0 instructions: 21000001 cycles: 12471330 heartbeat IPC: 1.41639 cumulative IPC: 1.4026 (Simulation time: 0 hr 8 min 4 sec) 
select_counter is 1002
Heartbeat CPU 0 instructions: 22000001 cycles: 13165318 heartbeat IPC: 1.44095 cumulative IPC: 1.40572 (Simulation time: 0 hr 8 min 28 sec) 
select_counter is 1023
Heartbeat CPU 0 instructions: 23000002 cycles: 13880447 heartbeat IPC: 1.39835 cumulative IPC: 1.40515 (Simulation time: 0 hr 8 min 51 sec) 
select_counter is 1019
Heartbeat CPU 0 instructions: 24000000 cycles: 14577392 heartbeat IPC: 1.43483 cumulative IPC: 1.40723 (Simulation time: 0 hr 9 min 15 sec) 
select_counter is 1022
Heartbeat CPU 0 instructions: 25000001 cycles: 15286006 heartbeat IPC: 1.41121 cumulative IPC: 1.40749 (Simulation time: 0 hr 9 min 39 sec) 
select_counter is 1016
Heartbeat CPU 0 instructions: 26000001 cycles: 15981114 heartbeat IPC: 1.43863 cumulative IPC: 1.4094 (Simulation time: 0 hr 10 min 1 sec) 
select_counter is 1014
Heartbeat CPU 0 instructions: 27000000 cycles: 16695554 heartbeat IPC: 1.3997 cumulative IPC: 1.40883 (Simulation time: 0 hr 10 min 24 sec) 
select_counter is 1023
Heartbeat CPU 0 instructions: 28000000 cycles: 17395736 heartbeat IPC: 1.4282 cumulative IPC: 1.40989 (Simulation time: 0 hr 10 min 50 sec) 
select_counter is 1014
Heartbeat CPU 0 instructions: 29000000 cycles: 18094052 heartbeat IPC: 1.43202 cumulative IPC: 1.41104 (Simulation time: 0 hr 11 min 13 sec) 
select_counter is 1021
Heartbeat CPU 0 instructions: 30000003 cycles: 18804741 heartbeat IPC: 1.40709 cumulative IPC: 1.41084 (Simulation time: 0 hr 11 min 39 sec) 
select_counter is 1020
Heartbeat CPU 0 instructions: 31000000 cycles: 19502649 heartbeat IPC: 1.43285 cumulative IPC: 1.41187 (Simulation time: 0 hr 12 min 4 sec) 
select_counter is 1015
Heartbeat CPU 0 instructions: 32000000 cycles: 20218382 heartbeat IPC: 1.39717 cumulative IPC: 1.4112 (Simulation time: 0 hr 12 min 28 sec) 
select_counter is 1022
Heartbeat CPU 0 instructions: 33000002 cycles: 20913789 heartbeat IPC: 1.43801 cumulative IPC: 1.41234 (Simulation time: 0 hr 12 min 51 sec) 
select_counter is 1019
Heartbeat CPU 0 instructions: 34000002 cycles: 21624658 heartbeat IPC: 1.40673 cumulative IPC: 1.41211 (Simulation time: 0 hr 13 min 16 sec) 
select_counter is 1019
Heartbeat CPU 0 instructions: 35000003 cycles: 22325891 heartbeat IPC: 1.42606 cumulative IPC: 1.41266 (Simulation time: 0 hr 13 min 41 sec) 
select_counter is 1022
Heartbeat CPU 0 instructions: 36000000 cycles: 23038211 heartbeat IPC: 1.40386 cumulative IPC: 1.41232 (Simulation time: 0 hr 14 min 5 sec) 
select_counter is 1020
Heartbeat CPU 0 instructions: 37000001 cycles: 23738340 heartbeat IPC: 1.42831 cumulative IPC: 1.4129 (Simulation time: 0 hr 14 min 28 sec) 
select_counter is 1022
Heartbeat CPU 0 instructions: 38000003 cycles: 24452572 heartbeat IPC: 1.40011 cumulative IPC: 1.41244 (Simulation time: 0 hr 14 min 51 sec) 
select_counter is 1019
Heartbeat CPU 0 instructions: 39000001 cycles: 25154259 heartbeat IPC: 1.42513 cumulative IPC: 1.41288 (Simulation time: 0 hr 15 min 17 sec) 
select_counter is 1020
Heartbeat CPU 0 instructions: 40000000 cycles: 25870003 heartbeat IPC: 1.39715 cumulative IPC: 1.41235 (Simulation time: 0 hr 15 min 40 sec) 
select_counter is 1023
Heartbeat CPU 0 instructions: 41000000 cycles: 26572459 heartbeat IPC: 1.42358 cumulative IPC: 1.41271 (Simulation time: 0 hr 16 min 5 sec) 
select_counter is 1017
Heartbeat CPU 0 instructions: 42000001 cycles: 27272661 heartbeat IPC: 1.42816 cumulative IPC: 1.41318 (Simulation time: 0 hr 16 min 29 sec) 
select_counter is 1017
Heartbeat CPU 0 instructions: 43000003 cycles: 27992362 heartbeat IPC: 1.38947 cumulative IPC: 1.41245 (Simulation time: 0 hr 16 min 53 sec) 
select_counter is 1021
Heartbeat CPU 0 instructions: 44000000 cycles: 28694083 heartbeat IPC: 1.42506 cumulative IPC: 1.41282 (Simulation time: 0 hr 17 min 17 sec) 
select_counter is 1021
Heartbeat CPU 0 instructions: 45000001 cycles: 29409044 heartbeat IPC: 1.39868 cumulative IPC: 1.41241 (Simulation time: 0 hr 17 min 41 sec) 
select_counter is 1021
Heartbeat CPU 0 instructions: 46000002 cycles: 30112729 heartbeat IPC: 1.42109 cumulative IPC: 1.41265 (Simulation time: 0 hr 18 min 6 sec) 
select_counter is 1014
Heartbeat CPU 0 instructions: 47000003 cycles: 30827009 heartbeat IPC: 1.40001 cumulative IPC: 1.41231 (Simulation time: 0 hr 18 min 30 sec) 
select_counter is 1021
Heartbeat CPU 0 instructions: 48000000 cycles: 31527669 heartbeat IPC: 1.42722 cumulative IPC: 1.4127 (Simulation time: 0 hr 18 min 53 sec) 
select_counter is 1021
Heartbeat CPU 0 instructions: 49000001 cycles: 32242389 heartbeat IPC: 1.39915 cumulative IPC: 1.41235 (Simulation time: 0 hr 19 min 16 sec) 
select_counter is 1020
Heartbeat CPU 0 instructions: 50000001 cycles: 32942092 heartbeat IPC: 1.42918 cumulative IPC: 1.41276 (Simulation time: 0 hr 19 min 40 sec) 
select_counter is 1023
Heartbeat CPU 0 instructions: 51000002 cycles: 33656413 heartbeat IPC: 1.39993 cumulative IPC: 1.41245 (Simulation time: 0 hr 20 min 4 sec) 
select_counter is 998
Heartbeat CPU 0 instructions: 52000000 cycles: 34354819 heartbeat IPC: 1.43183 cumulative IPC: 1.4129 (Simulation time: 0 hr 20 min 29 sec) 
select_counter is 1019
Heartbeat CPU 0 instructions: 53000001 cycles: 35068138 heartbeat IPC: 1.4019 cumulative IPC: 1.41264 (Simulation time: 0 hr 20 min 53 sec) 
select_counter is 1020
Heartbeat CPU 0 instructions: 54000003 cycles: 35772334 heartbeat IPC: 1.42006 cumulative IPC: 1.41281 (Simulation time: 0 hr 21 min 19 sec) 
select_counter is 1013
Heartbeat CPU 0 instructions: 55000003 cycles: 36480126 heartbeat IPC: 1.41284 cumulative IPC: 1.41281 (Simulation time: 0 hr 21 min 43 sec) 
select_counter is 1015
Heartbeat CPU 0 instructions: 56000000 cycles: 37190643 heartbeat IPC: 1.40742 cumulative IPC: 1.41269 (Simulation time: 0 hr 22 min 7 sec) 
select_counter is 1015
Heartbeat CPU 0 instructions: 57000003 cycles: 37888765 heartbeat IPC: 1.43242 cumulative IPC: 1.41311 (Simulation time: 0 hr 22 min 32 sec) 
select_counter is 1012
Heartbeat CPU 0 instructions: 58000003 cycles: 38600176 heartbeat IPC: 1.40566 cumulative IPC: 1.41295 (Simulation time: 0 hr 22 min 58 sec) 
select_counter is 1019
Heartbeat CPU 0 instructions: 59000000 cycles: 39301672 heartbeat IPC: 1.42552 cumulative IPC: 1.41321 (Simulation time: 0 hr 23 min 26 sec) 
select_counter is 1003
Heartbeat CPU 0 instructions: 60000000 cycles: 40019121 heartbeat IPC: 1.39383 cumulative IPC: 1.41281 (Simulation time: 0 hr 23 min 51 sec) 
select_counter is 1000
Heartbeat CPU 0 instructions: 61000000 cycles: 40717784 heartbeat IPC: 1.43131 cumulative IPC: 1.41317 (Simulation time: 0 hr 24 min 15 sec) 
select_counter is 1023
Heartbeat CPU 0 instructions: 62000001 cycles: 41431025 heartbeat IPC: 1.40205 cumulative IPC: 1.41296 (Simulation time: 0 hr 24 min 41 sec) 
select_counter is 1003
Heartbeat CPU 0 instructions: 63000001 cycles: 42132530 heartbeat IPC: 1.42551 cumulative IPC: 1.41319 (Simulation time: 0 hr 25 min 5 sec) 
select_counter is 944
Heartbeat CPU 0 instructions: 64000000 cycles: 42844503 heartbeat IPC: 1.40455 cumulative IPC: 1.41303 (Simulation time: 0 hr 25 min 29 sec) 
select_counter is 931
Heartbeat CPU 0 instructions: 65000003 cycles: 43541629 heartbeat IPC: 1.43447 cumulative IPC: 1.41341 (Simulation time: 0 hr 25 min 53 sec) 
select_counter is 946
Heartbeat CPU 0 instructions: 66000003 cycles: 44258344 heartbeat IPC: 1.39525 cumulative IPC: 1.41309 (Simulation time: 0 hr 26 min 17 sec) 
select_counter is 925
Heartbeat CPU 0 instructions: 67000000 cycles: 44960718 heartbeat IPC: 1.42374 cumulative IPC: 1.41327 (Simulation time: 0 hr 26 min 43 sec) 
select_counter is 972
Heartbeat CPU 0 instructions: 68000000 cycles: 45669647 heartbeat IPC: 1.41058 cumulative IPC: 1.41322 (Simulation time: 0 hr 27 min 9 sec) 
select_counter is 998
Heartbeat CPU 0 instructions: 69000000 cycles: 46366573 heartbeat IPC: 1.43487 cumulative IPC: 1.41359 (Simulation time: 0 hr 27 min 34 sec) 
select_counter is 988
Heartbeat CPU 0 instructions: 70000003 cycles: 47061817 heartbeat IPC: 1.43835 cumulative IPC: 1.41399 (Simulation time: 0 hr 27 min 58 sec) 
select_counter is 959
Heartbeat CPU 0 instructions: 71000003 cycles: 47775366 heartbeat IPC: 1.40145 cumulative IPC: 1.41378 (Simulation time: 0 hr 28 min 24 sec) 
select_counter is 956
Heartbeat CPU 0 instructions: 72000000 cycles: 48472948 heartbeat IPC: 1.43352 cumulative IPC: 1.4141 (Simulation time: 0 hr 28 min 49 sec) 
select_counter is 973
Heartbeat CPU 0 instructions: 73000002 cycles: 49188280 heartbeat IPC: 1.39796 cumulative IPC: 1.41384 (Simulation time: 0 hr 29 min 16 sec) 
select_counter is 961
Heartbeat CPU 0 instructions: 74000003 cycles: 49883730 heartbeat IPC: 1.43792 cumulative IPC: 1.41421 (Simulation time: 0 hr 29 min 41 sec) 
select_counter is 933
Heartbeat CPU 0 instructions: 75000003 cycles: 50592319 heartbeat IPC: 1.41126 cumulative IPC: 1.41416 (Simulation time: 0 hr 30 min 7 sec) 
select_counter is 953
Heartbeat CPU 0 instructions: 76000000 cycles: 51291231 heartbeat IPC: 1.43079 cumulative IPC: 1.41441 (Simulation time: 0 hr 30 min 32 sec) 
select_counter is 960
Heartbeat CPU 0 instructions: 77000000 cycles: 52013027 heartbeat IPC: 1.38543 cumulative IPC: 1.41397 (Simulation time: 0 hr 30 min 57 sec) 
select_counter is 934
Heartbeat CPU 0 instructions: 78000002 cycles: 52714901 heartbeat IPC: 1.42476 cumulative IPC: 1.41413 (Simulation time: 0 hr 31 min 25 sec) 
select_counter is 930
Heartbeat CPU 0 instructions: 79000000 cycles: 53427460 heartbeat IPC: 1.40339 cumulative IPC: 1.41397 (Simulation time: 0 hr 31 min 50 sec) 
select_counter is 945
Heartbeat CPU 0 instructions: 80000000 cycles: 54124190 heartbeat IPC: 1.43528 cumulative IPC: 1.41427 (Simulation time: 0 hr 32 min 14 sec) 
select_counter is 883
Heartbeat CPU 0 instructions: 81000003 cycles: 54840644 heartbeat IPC: 1.39577 cumulative IPC: 1.41401 (Simulation time: 0 hr 32 min 39 sec) 
select_counter is 931
Heartbeat CPU 0 instructions: 82000000 cycles: 55541541 heartbeat IPC: 1.42674 cumulative IPC: 1.41418 (Simulation time: 0 hr 33 min 4 sec) 
select_counter is 916
Heartbeat CPU 0 instructions: 83000002 cycles: 56237100 heartbeat IPC: 1.4377 cumulative IPC: 1.4145 (Simulation time: 0 hr 33 min 32 sec) 
select_counter is 873
Heartbeat CPU 0 instructions: 84000000 cycles: 56947070 heartbeat IPC: 1.40851 cumulative IPC: 1.41442 (Simulation time: 0 hr 33 min 58 sec) 
select_counter is 873
Heartbeat CPU 0 instructions: 85000001 cycles: 57642623 heartbeat IPC: 1.43771 cumulative IPC: 1.41472 (Simulation time: 0 hr 34 min 23 sec) 
select_counter is 828
Heartbeat CPU 0 instructions: 86000001 cycles: 58355031 heartbeat IPC: 1.40369 cumulative IPC: 1.41458 (Simulation time: 0 hr 34 min 49 sec) 
select_counter is 859
Heartbeat CPU 0 instructions: 87000001 cycles: 59058458 heartbeat IPC: 1.42161 cumulative IPC: 1.41467 (Simulation time: 0 hr 35 min 17 sec) 
select_counter is 866
Heartbeat CPU 0 instructions: 88000000 cycles: 59769247 heartbeat IPC: 1.40689 cumulative IPC: 1.41457 (Simulation time: 0 hr 35 min 44 sec) 
select_counter is 856
Heartbeat CPU 0 instructions: 89000003 cycles: 60466948 heartbeat IPC: 1.43328 cumulative IPC: 1.4148 (Simulation time: 0 hr 36 min 9 sec) 
select_counter is 863
Heartbeat CPU 0 instructions: 90000001 cycles: 61175835 heartbeat IPC: 1.41066 cumulative IPC: 1.41475 (Simulation time: 0 hr 36 min 33 sec) 
select_counter is 860
Heartbeat CPU 0 instructions: 91000003 cycles: 61881281 heartbeat IPC: 1.41755 cumulative IPC: 1.41479 (Simulation time: 0 hr 36 min 58 sec) 
select_counter is 799
Heartbeat CPU 0 instructions: 92000000 cycles: 62595669 heartbeat IPC: 1.3998 cumulative IPC: 1.4146 (Simulation time: 0 hr 37 min 25 sec) 
select_counter is 835
Heartbeat CPU 0 instructions: 93000001 cycles: 63296235 heartbeat IPC: 1.42742 cumulative IPC: 1.41475 (Simulation time: 0 hr 37 min 50 sec) 
select_counter is 818
Heartbeat CPU 0 instructions: 94000003 cycles: 64008960 heartbeat IPC: 1.40307 cumulative IPC: 1.41461 (Simulation time: 0 hr 38 min 13 sec) 
select_counter is 834
Heartbeat CPU 0 instructions: 95000003 cycles: 64713822 heartbeat IPC: 1.41872 cumulative IPC: 1.41466 (Simulation time: 0 hr 38 min 39 sec) 
select_counter is 808
Heartbeat CPU 0 instructions: 96000000 cycles: 65421054 heartbeat IPC: 1.41396 cumulative IPC: 1.41465 (Simulation time: 0 hr 39 min 4 sec) 
select_counter is 798
Heartbeat CPU 0 instructions: 97000000 cycles: 66131327 heartbeat IPC: 1.40791 cumulative IPC: 1.41458 (Simulation time: 0 hr 39 min 30 sec) 
select_counter is 813
Heartbeat CPU 0 instructions: 98000001 cycles: 66827120 heartbeat IPC: 1.43721 cumulative IPC: 1.41483 (Simulation time: 0 hr 39 min 53 sec) 
select_counter is 765
Heartbeat CPU 0 instructions: 99000001 cycles: 67550675 heartbeat IPC: 1.38206 cumulative IPC: 1.41445 (Simulation time: 0 hr 40 min 19 sec) 
select_counter is 740
Heartbeat CPU 0 instructions: 100000000 cycles: 68266389 heartbeat IPC: 1.3972 cumulative IPC: 1.41426 (Simulation time: 0 hr 40 min 42 sec) 
select_counter is 705
Heartbeat CPU 0 instructions: 101000002 cycles: 68997542 heartbeat IPC: 1.36771 cumulative IPC: 1.41373 (Simulation time: 0 hr 41 min 4 sec) 
select_counter is 697
Heartbeat CPU 0 instructions: 102000003 cycles: 69722808 heartbeat IPC: 1.37881 cumulative IPC: 1.41334 (Simulation time: 0 hr 41 min 26 sec) 
select_counter is 677
Heartbeat CPU 0 instructions: 103000001 cycles: 70464413 heartbeat IPC: 1.34842 cumulative IPC: 1.41261 (Simulation time: 0 hr 41 min 51 sec) 
select_counter is 646
Heartbeat CPU 0 instructions: 104000000 cycles: 71188873 heartbeat IPC: 1.38034 cumulative IPC: 1.41226 (Simulation time: 0 hr 42 min 14 sec) 
select_counter is 631
Heartbeat CPU 0 instructions: 105000003 cycles: 71924735 heartbeat IPC: 1.35895 cumulative IPC: 1.41167 (Simulation time: 0 hr 42 min 38 sec) 
select_counter is 643
Heartbeat CPU 0 instructions: 106000002 cycles: 72650512 heartbeat IPC: 1.37783 cumulative IPC: 1.41131 (Simulation time: 0 hr 43 min 0 sec) 
select_counter is 642
Heartbeat CPU 0 instructions: 107000000 cycles: 73376659 heartbeat IPC: 1.37713 cumulative IPC: 1.41095 (Simulation time: 0 hr 43 min 22 sec) 
select_counter is 670
Heartbeat CPU 0 instructions: 108000000 cycles: 74076641 heartbeat IPC: 1.42861 cumulative IPC: 1.41113 (Simulation time: 0 hr 43 min 47 sec) 
select_counter is 709
Heartbeat CPU 0 instructions: 109000002 cycles: 74773813 heartbeat IPC: 1.43437 cumulative IPC: 1.41136 (Simulation time: 0 hr 44 min 9 sec) 
select_counter is 691
Heartbeat CPU 0 instructions: 110000000 cycles: 75484491 heartbeat IPC: 1.4071 cumulative IPC: 1.41132 (Simulation time: 0 hr 44 min 30 sec) 
select_counter is 684
Finished CPU 0 instructions: 100000003 cycles: 70855727 cummulative IPC: 1.41132 (Simulation time: 0 hr 44 min 30 sec) 

ChampSim completed all CPUs

Region of Interest Statistics

CPU 0 cummulative IPC: 1.41132 instructions: 100000003 cycles: 70855727
LLC TOTAL     ACCESS:     834023  HIT:     111894  MISS:     722129
LLC LOAD      ACCESS:      26534  HIT:       9405  MISS:      17129
LLC RFO       ACCESS:     201708  HIT:       8327  MISS:     193381
LLC PREFETCH  ACCESS:     402442  HIT:       3488  MISS:     398954
LLC WRITEBACK ACCESS:     203339  HIT:      90674  MISS:     112665
Ship samples: size is 64
13, 51, 78, 98, 145, 174, 208, 211, 267, 306, 319, 350, 385, 440, 449, 463, 504, 551, 580, 604, 636, 682, 693, 728, 773, 800, 833, 852, 890, 942, 955, 986, 1025, 1063, 1074, 1095, 1141, 1179, 1209, 1233, 1273, 1320, 1323, 1361, 1400, 1430, 1465, 1474, 1532, 1574, 1593, 1615, 1647, 1693, 1702, 1739, 1778, 1824, 1843, 1864, 1902, 1938, 1960, 1974, 
Ship duel samples: size is 96
13, 28, 51, 78, 98, 113, 145, 167, 174, 208, 211, 237, 267, 289, 306, 319, 350, 375, 385, 418, 440, 449, 463, 488, 504, 536, 551, 580, 604, 609, 636, 651, 682, 693, 728, 751, 773, 790, 800, 833, 852, 867, 890, 911, 942, 955, 986, 1001, 1025, 1045, 1063, 1074, 1095, 1128, 1141, 1156, 1179, 1209, 1233, 1256, 1273, 1300, 1320, 1323, 1361, 1376, 1400, 1418, 1430, 1465, 1474, 1503, 1532, 1544, 1574, 1593, 1615, 1634, 1647, 1673, 1693, 1702, 1739, 1759, 1778, 1788, 1824, 1843, 1864, 1879, 1902, 1917, 1938, 1960, 1974, 2012, 
Lime duel samples: size is 96
20, 26, 62, 67, 100, 118, 128, 148, 177, 190, 225, 245, 269, 292, 296, 317, 355, 366, 391, 407, 431, 450, 471, 483, 524, 542, 552, 587, 608, 615, 641, 671, 683, 703, 715, 741, 756, 778, 803, 826, 843, 881, 902, 921, 943, 946, 985, 1002, 1017, 1040, 1051, 1091, 1110, 1123, 1153, 1173, 1182, 1199, 1235, 1242, 1268, 1286, 1302, 1340, 1360, 1367, 1389, 1421, 1431, 1457, 1471, 1495, 1518, 1533, 1554, 1577, 1616, 1636, 1655, 1667, 1689, 1719, 1728, 1748, 1771, 1787, 1808, 1838, 1852, 1886, 1903, 1921, 1934, 1966, 1980, 2011, 
Lime samples: size is 15
20, 128, 269, 391, 524, 641, 756, 902, 1017, 1153, 1268, 1389, 1518, 1655, 1771, 
Insertion Distribution: 
	LOAD 88 0 0 0 0 0 1266 378 
	RFO 3434 0 0 0 0 0 3767 9164 
	PREF 0 5894 0 0 0 0 12553 18468 
	WRITEBACK 0 0 0 0 0 0 0 7925 
Total Prefetch Downgrades: 2117
