
*** ChampSim Multicore Out-of-Order Simulator ***

Warmup Instructions: 10000000
Simulation Instructions: 100000000
Configuration: 2
Number of CPUs: 1
LLC sets: 2048
LLC ways: 16
Off-chip DRAM Channels: 1 Width: 64-bit Data Rate: 1600 MT/s

CPU 0 runs /datasets/cs240c-wi22-a00-public/data/Assignment2-gz/lbm_94B.trace.gz
CPU 0 L1D next line prefetcher
CPU 0 L2C IP-based stride prefetcher
Heartbeat CPU 0 instructions: 1000000 cycles: 422068 heartbeat IPC: 2.36929 cumulative IPC: 2.36929 (Simulation time: 0 hr 0 min 25 sec) 
select_counter is 823
Heartbeat CPU 0 instructions: 2000000 cycles: 812399 heartbeat IPC: 2.56193 cumulative IPC: 2.46184 (Simulation time: 0 hr 0 min 49 sec) 
select_counter is 1021
Heartbeat CPU 0 instructions: 3000000 cycles: 1211540 heartbeat IPC: 2.50538 cumulative IPC: 2.47619 (Simulation time: 0 hr 1 min 13 sec) 
select_counter is 1022
Heartbeat CPU 0 instructions: 4000000 cycles: 1631533 heartbeat IPC: 2.38099 cumulative IPC: 2.45168 (Simulation time: 0 hr 1 min 40 sec) 
select_counter is 862
Heartbeat CPU 0 instructions: 5000001 cycles: 2021785 heartbeat IPC: 2.56245 cumulative IPC: 2.47306 (Simulation time: 0 hr 2 min 6 sec) 
select_counter is 999
Heartbeat CPU 0 instructions: 6000000 cycles: 2422461 heartbeat IPC: 2.49578 cumulative IPC: 2.47682 (Simulation time: 0 hr 2 min 32 sec) 
select_counter is 1018
Heartbeat CPU 0 instructions: 7000001 cycles: 2840612 heartbeat IPC: 2.39148 cumulative IPC: 2.46426 (Simulation time: 0 hr 2 min 57 sec) 
select_counter is 530
Heartbeat CPU 0 instructions: 8000000 cycles: 3230851 heartbeat IPC: 2.56253 cumulative IPC: 2.47613 (Simulation time: 0 hr 3 min 24 sec) 
select_counter is 808
Heartbeat CPU 0 instructions: 9000003 cycles: 3631883 heartbeat IPC: 2.49357 cumulative IPC: 2.47805 (Simulation time: 0 hr 3 min 50 sec) 
select_counter is 845
Heartbeat CPU 0 instructions: 10000000 cycles: 4048457 heartbeat IPC: 2.40053 cumulative IPC: 2.47008 (Simulation time: 0 hr 4 min 16 sec) 
select_counter is 1022

Warmup complete CPU 0 instructions: 10000004 cycles: 4048458 (Simulation time: 0 hr 4 min 16 sec) 

Heartbeat CPU 0 instructions: 11000001 cycles: 5424319 heartbeat IPC: 0.726818 cumulative IPC: 0.726815 (Simulation time: 0 hr 4 min 44 sec) 
select_counter is 1021
Heartbeat CPU 0 instructions: 12000000 cycles: 7023900 heartbeat IPC: 0.625163 cumulative IPC: 0.672168 (Simulation time: 0 hr 5 min 13 sec) 
select_counter is 995
Heartbeat CPU 0 instructions: 13000000 cycles: 8662320 heartbeat IPC: 0.610344 cumulative IPC: 0.650214 (Simulation time: 0 hr 5 min 42 sec) 
select_counter is 1018
Heartbeat CPU 0 instructions: 14000000 cycles: 9990395 heartbeat IPC: 0.75297 cumulative IPC: 0.67318 (Simulation time: 0 hr 6 min 9 sec) 
select_counter is 1019
Heartbeat CPU 0 instructions: 15000003 cycles: 11559020 heartbeat IPC: 0.637503 cumulative IPC: 0.665729 (Simulation time: 0 hr 6 min 40 sec) 
select_counter is 1023
Heartbeat CPU 0 instructions: 16000000 cycles: 13248074 heartbeat IPC: 0.592046 cumulative IPC: 0.652201 (Simulation time: 0 hr 7 min 12 sec) 
select_counter is 1019
Heartbeat CPU 0 instructions: 17000001 cycles: 14534845 heartbeat IPC: 0.77714 cumulative IPC: 0.667532 (Simulation time: 0 hr 7 min 37 sec) 
select_counter is 1016
Heartbeat CPU 0 instructions: 18000001 cycles: 16005385 heartbeat IPC: 0.680022 cumulative IPC: 0.669068 (Simulation time: 0 hr 8 min 6 sec) 
select_counter is 1018
Heartbeat CPU 0 instructions: 19000000 cycles: 17684049 heartbeat IPC: 0.595711 cumulative IPC: 0.660037 (Simulation time: 0 hr 8 min 38 sec) 
select_counter is 1021
Heartbeat CPU 0 instructions: 20000000 cycles: 19002690 heartbeat IPC: 0.758357 cumulative IPC: 0.668707 (Simulation time: 0 hr 9 min 6 sec) 
select_counter is 1023
Heartbeat CPU 0 instructions: 21000001 cycles: 20485225 heartbeat IPC: 0.674521 cumulative IPC: 0.669231 (Simulation time: 0 hr 9 min 34 sec) 
select_counter is 1015
Heartbeat CPU 0 instructions: 22000000 cycles: 22122109 heartbeat IPC: 0.610916 cumulative IPC: 0.66395 (Simulation time: 0 hr 10 min 7 sec) 
select_counter is 1023
Heartbeat CPU 0 instructions: 23000000 cycles: 23466574 heartbeat IPC: 0.74379 cumulative IPC: 0.669478 (Simulation time: 0 hr 10 min 36 sec) 
select_counter is 1017
Heartbeat CPU 0 instructions: 24000000 cycles: 24908225 heartbeat IPC: 0.693649 cumulative IPC: 0.671148 (Simulation time: 0 hr 11 min 5 sec) 
select_counter is 1023
Heartbeat CPU 0 instructions: 25000000 cycles: 26574143 heartbeat IPC: 0.60027 cumulative IPC: 0.665906 (Simulation time: 0 hr 11 min 35 sec) 
select_counter is 1017
Heartbeat CPU 0 instructions: 26000000 cycles: 27930809 heartbeat IPC: 0.737101 cumulative IPC: 0.669951 (Simulation time: 0 hr 12 min 2 sec) 
select_counter is 1017
Heartbeat CPU 0 instructions: 27000002 cycles: 29330606 heartbeat IPC: 0.714391 cumulative IPC: 0.672411 (Simulation time: 0 hr 12 min 30 sec) 
select_counter is 1022
Heartbeat CPU 0 instructions: 28000000 cycles: 31017350 heartbeat IPC: 0.592857 cumulative IPC: 0.667436 (Simulation time: 0 hr 13 min 1 sec) 
select_counter is 1020
Heartbeat CPU 0 instructions: 29000000 cycles: 32384354 heartbeat IPC: 0.731527 cumulative IPC: 0.670527 (Simulation time: 0 hr 13 min 28 sec) 
select_counter is 1018
Heartbeat CPU 0 instructions: 30000000 cycles: 33812818 heartbeat IPC: 0.700053 cumulative IPC: 0.671944 (Simulation time: 0 hr 13 min 54 sec) 
select_counter is 1016
Heartbeat CPU 0 instructions: 31000001 cycles: 35357025 heartbeat IPC: 0.647582 cumulative IPC: 0.670743 (Simulation time: 0 hr 14 min 23 sec) 
select_counter is 1023
Heartbeat CPU 0 instructions: 32000000 cycles: 36728480 heartbeat IPC: 0.729152 cumulative IPC: 0.673194 (Simulation time: 0 hr 14 min 53 sec) 
select_counter is 1023
Heartbeat CPU 0 instructions: 33000000 cycles: 38138211 heartbeat IPC: 0.709355 cumulative IPC: 0.674689 (Simulation time: 0 hr 15 min 21 sec) 
select_counter is 1018
Heartbeat CPU 0 instructions: 34000003 cycles: 39708717 heartbeat IPC: 0.636739 cumulative IPC: 0.673018 (Simulation time: 0 hr 15 min 53 sec) 
select_counter is 1007
Heartbeat CPU 0 instructions: 35000003 cycles: 41050076 heartbeat IPC: 0.745513 cumulative IPC: 0.675646 (Simulation time: 0 hr 16 min 23 sec) 
select_counter is 1021
Heartbeat CPU 0 instructions: 36000000 cycles: 42436416 heartbeat IPC: 0.721322 cumulative IPC: 0.677296 (Simulation time: 0 hr 16 min 53 sec) 
select_counter is 1021
Heartbeat CPU 0 instructions: 37000003 cycles: 43917326 heartbeat IPC: 0.675263 cumulative IPC: 0.67722 (Simulation time: 0 hr 17 min 22 sec) 
select_counter is 990
Heartbeat CPU 0 instructions: 38000000 cycles: 45324845 heartbeat IPC: 0.710468 cumulative IPC: 0.678354 (Simulation time: 0 hr 17 min 51 sec) 
select_counter is 1017
Heartbeat CPU 0 instructions: 39000002 cycles: 46684779 heartbeat IPC: 0.735331 cumulative IPC: 0.680171 (Simulation time: 0 hr 18 min 20 sec) 
select_counter is 1023
Heartbeat CPU 0 instructions: 40000000 cycles: 48151803 heartbeat IPC: 0.681651 cumulative IPC: 0.68022 (Simulation time: 0 hr 18 min 48 sec) 
select_counter is 1007
Heartbeat CPU 0 instructions: 41000003 cycles: 49598244 heartbeat IPC: 0.691354 cumulative IPC: 0.680574 (Simulation time: 0 hr 19 min 18 sec) 
select_counter is 1016
Heartbeat CPU 0 instructions: 42000000 cycles: 50950755 heartbeat IPC: 0.739363 cumulative IPC: 0.682269 (Simulation time: 0 hr 19 min 46 sec) 
select_counter is 1019
Heartbeat CPU 0 instructions: 43000001 cycles: 52346437 heartbeat IPC: 0.716496 cumulative IPC: 0.683258 (Simulation time: 0 hr 20 min 17 sec) 
select_counter is 1023
Heartbeat CPU 0 instructions: 44000000 cycles: 53807573 heartbeat IPC: 0.684398 cumulative IPC: 0.683292 (Simulation time: 0 hr 20 min 46 sec) 
select_counter is 1017
Heartbeat CPU 0 instructions: 45000002 cycles: 55159520 heartbeat IPC: 0.739675 cumulative IPC: 0.684783 (Simulation time: 0 hr 21 min 17 sec) 
select_counter is 1023
Heartbeat CPU 0 instructions: 46000003 cycles: 56555121 heartbeat IPC: 0.716538 cumulative IPC: 0.685627 (Simulation time: 0 hr 21 min 47 sec) 
select_counter is 1023
Heartbeat CPU 0 instructions: 47000001 cycles: 58016776 heartbeat IPC: 0.684155 cumulative IPC: 0.685587 (Simulation time: 0 hr 22 min 15 sec) 
select_counter is 1021
Heartbeat CPU 0 instructions: 48000000 cycles: 59411431 heartbeat IPC: 0.717022 cumulative IPC: 0.686379 (Simulation time: 0 hr 22 min 46 sec) 
select_counter is 1022
Heartbeat CPU 0 instructions: 49000000 cycles: 60828050 heartbeat IPC: 0.705906 cumulative IPC: 0.686866 (Simulation time: 0 hr 23 min 18 sec) 
select_counter is 1020
Heartbeat CPU 0 instructions: 50000003 cycles: 62271655 heartbeat IPC: 0.692712 cumulative IPC: 0.687011 (Simulation time: 0 hr 23 min 48 sec) 
select_counter is 1015
Heartbeat CPU 0 instructions: 51000003 cycles: 63637562 heartbeat IPC: 0.732114 cumulative IPC: 0.688045 (Simulation time: 0 hr 24 min 19 sec) 
select_counter is 1020
Heartbeat CPU 0 instructions: 52000000 cycles: 65027274 heartbeat IPC: 0.719571 cumulative IPC: 0.688764 (Simulation time: 0 hr 24 min 44 sec) 
select_counter is 1022
Heartbeat CPU 0 instructions: 53000001 cycles: 66464894 heartbeat IPC: 0.695595 cumulative IPC: 0.688921 (Simulation time: 0 hr 25 min 13 sec) 
select_counter is 1021
Heartbeat CPU 0 instructions: 54000000 cycles: 67855629 heartbeat IPC: 0.719044 cumulative IPC: 0.689578 (Simulation time: 0 hr 25 min 41 sec) 
select_counter is 1019
Heartbeat CPU 0 instructions: 55000003 cycles: 69239631 heartbeat IPC: 0.722544 cumulative IPC: 0.690277 (Simulation time: 0 hr 26 min 11 sec) 
select_counter is 1017
Heartbeat CPU 0 instructions: 56000000 cycles: 70676435 heartbeat IPC: 0.695987 cumulative IPC: 0.690401 (Simulation time: 0 hr 26 min 39 sec) 
select_counter is 1018
Heartbeat CPU 0 instructions: 57000001 cycles: 72033989 heartbeat IPC: 0.73662 cumulative IPC: 0.691324 (Simulation time: 0 hr 27 min 9 sec) 
select_counter is 1022
Heartbeat CPU 0 instructions: 58000003 cycles: 73402700 heartbeat IPC: 0.730616 cumulative IPC: 0.692099 (Simulation time: 0 hr 27 min 41 sec) 
select_counter is 1020
Heartbeat CPU 0 instructions: 59000002 cycles: 74818501 heartbeat IPC: 0.706313 cumulative IPC: 0.692383 (Simulation time: 0 hr 28 min 16 sec) 
select_counter is 1019
Heartbeat CPU 0 instructions: 60000000 cycles: 76210426 heartbeat IPC: 0.718428 cumulative IPC: 0.692886 (Simulation time: 0 hr 28 min 47 sec) 
select_counter is 1021
Heartbeat CPU 0 instructions: 61000000 cycles: 77549912 heartbeat IPC: 0.746555 cumulative IPC: 0.693864 (Simulation time: 0 hr 29 min 20 sec) 
select_counter is 1022
Heartbeat CPU 0 instructions: 62000000 cycles: 78926262 heartbeat IPC: 0.726559 cumulative IPC: 0.694465 (Simulation time: 0 hr 29 min 51 sec) 
select_counter is 1011
Heartbeat CPU 0 instructions: 63000001 cycles: 80367610 heartbeat IPC: 0.693796 cumulative IPC: 0.694452 (Simulation time: 0 hr 30 min 23 sec) 
select_counter is 1015
Heartbeat CPU 0 instructions: 64000000 cycles: 81720670 heartbeat IPC: 0.739065 cumulative IPC: 0.695229 (Simulation time: 0 hr 30 min 55 sec) 
select_counter is 1019
Heartbeat CPU 0 instructions: 65000003 cycles: 83087170 heartbeat IPC: 0.731799 cumulative IPC: 0.695862 (Simulation time: 0 hr 31 min 25 sec) 
select_counter is 1022
Heartbeat CPU 0 instructions: 66000002 cycles: 84543370 heartbeat IPC: 0.686718 cumulative IPC: 0.695696 (Simulation time: 0 hr 31 min 58 sec) 
select_counter is 1019
Heartbeat CPU 0 instructions: 67000002 cycles: 85914128 heartbeat IPC: 0.729523 cumulative IPC: 0.696263 (Simulation time: 0 hr 32 min 29 sec) 
select_counter is 1018
Heartbeat CPU 0 instructions: 68000000 cycles: 87265577 heartbeat IPC: 0.739945 cumulative IPC: 0.696972 (Simulation time: 0 hr 33 min 2 sec) 
select_counter is 1018
Heartbeat CPU 0 instructions: 69000000 cycles: 88644646 heartbeat IPC: 0.725127 cumulative IPC: 0.697431 (Simulation time: 0 hr 33 min 34 sec) 
select_counter is 1023
Heartbeat CPU 0 instructions: 70000003 cycles: 90108672 heartbeat IPC: 0.68305 cumulative IPC: 0.697186 (Simulation time: 0 hr 34 min 6 sec) 
select_counter is 1023
Heartbeat CPU 0 instructions: 71000001 cycles: 91475286 heartbeat IPC: 0.731734 cumulative IPC: 0.697726 (Simulation time: 0 hr 34 min 36 sec) 
select_counter is 1023
Heartbeat CPU 0 instructions: 72000000 cycles: 92833826 heartbeat IPC: 0.736084 cumulative IPC: 0.698313 (Simulation time: 0 hr 35 min 7 sec) 
select_counter is 1021
Heartbeat CPU 0 instructions: 73000001 cycles: 94257021 heartbeat IPC: 0.702645 cumulative IPC: 0.698382 (Simulation time: 0 hr 35 min 38 sec) 
select_counter is 1019
Heartbeat CPU 0 instructions: 74000001 cycles: 95670252 heartbeat IPC: 0.707598 cumulative IPC: 0.698524 (Simulation time: 0 hr 36 min 9 sec) 
select_counter is 1019
Heartbeat CPU 0 instructions: 75000000 cycles: 97036281 heartbeat IPC: 0.732048 cumulative IPC: 0.699016 (Simulation time: 0 hr 36 min 39 sec) 
select_counter is 1021
Heartbeat CPU 0 instructions: 76000000 cycles: 98424250 heartbeat IPC: 0.720477 cumulative IPC: 0.699332 (Simulation time: 0 hr 37 min 13 sec) 
select_counter is 1018
Heartbeat CPU 0 instructions: 77000002 cycles: 99815327 heartbeat IPC: 0.718869 cumulative IPC: 0.699616 (Simulation time: 0 hr 37 min 43 sec) 
select_counter is 1020
Heartbeat CPU 0 instructions: 78000003 cycles: 101227370 heartbeat IPC: 0.708194 cumulative IPC: 0.69974 (Simulation time: 0 hr 38 min 15 sec) 
select_counter is 1013
Heartbeat CPU 0 instructions: 79000000 cycles: 102608225 heartbeat IPC: 0.724187 cumulative IPC: 0.700083 (Simulation time: 0 hr 38 min 44 sec) 
select_counter is 1017
Heartbeat CPU 0 instructions: 80000000 cycles: 103974019 heartbeat IPC: 0.732175 cumulative IPC: 0.700521 (Simulation time: 0 hr 39 min 15 sec) 
select_counter is 1020
Heartbeat CPU 0 instructions: 81000000 cycles: 105367637 heartbeat IPC: 0.717557 cumulative IPC: 0.700756 (Simulation time: 0 hr 39 min 45 sec) 
select_counter is 1021
Heartbeat CPU 0 instructions: 82000000 cycles: 106726022 heartbeat IPC: 0.736168 cumulative IPC: 0.701224 (Simulation time: 0 hr 40 min 13 sec) 
select_counter is 1021
Heartbeat CPU 0 instructions: 83000003 cycles: 108140083 heartbeat IPC: 0.707185 cumulative IPC: 0.701305 (Simulation time: 0 hr 40 min 45 sec) 
select_counter is 1021
Heartbeat CPU 0 instructions: 84000000 cycles: 109491478 heartbeat IPC: 0.739974 cumulative IPC: 0.701801 (Simulation time: 0 hr 41 min 14 sec) 
select_counter is 1022
Heartbeat CPU 0 instructions: 85000001 cycles: 110881352 heartbeat IPC: 0.71949 cumulative IPC: 0.702031 (Simulation time: 0 hr 41 min 42 sec) 
select_counter is 1013
Heartbeat CPU 0 instructions: 86000003 cycles: 112318091 heartbeat IPC: 0.696022 cumulative IPC: 0.701951 (Simulation time: 0 hr 42 min 10 sec) 
select_counter is 1011
Heartbeat CPU 0 instructions: 87000000 cycles: 113691709 heartbeat IPC: 0.728002 cumulative IPC: 0.702278 (Simulation time: 0 hr 42 min 38 sec) 
select_counter is 1019
Heartbeat CPU 0 instructions: 88000000 cycles: 115057752 heartbeat IPC: 0.732041 cumulative IPC: 0.702644 (Simulation time: 0 hr 43 min 8 sec) 
select_counter is 1023
Heartbeat CPU 0 instructions: 89000003 cycles: 116423022 heartbeat IPC: 0.732458 cumulative IPC: 0.703006 (Simulation time: 0 hr 43 min 35 sec) 
select_counter is 1020
Heartbeat CPU 0 instructions: 90000003 cycles: 117839803 heartbeat IPC: 0.705825 cumulative IPC: 0.703041 (Simulation time: 0 hr 44 min 5 sec) 
select_counter is 1017
Heartbeat CPU 0 instructions: 91000002 cycles: 119214850 heartbeat IPC: 0.727247 cumulative IPC: 0.70333 (Simulation time: 0 hr 44 min 33 sec) 
select_counter is 1021
Heartbeat CPU 0 instructions: 92000000 cycles: 120585196 heartbeat IPC: 0.729741 cumulative IPC: 0.703641 (Simulation time: 0 hr 44 min 59 sec) 
select_counter is 1023
Heartbeat CPU 0 instructions: 93000003 cycles: 121989725 heartbeat IPC: 0.711985 cumulative IPC: 0.70374 (Simulation time: 0 hr 45 min 23 sec) 
select_counter is 1017
Heartbeat CPU 0 instructions: 94000001 cycles: 123329392 heartbeat IPC: 0.746453 cumulative IPC: 0.70422 (Simulation time: 0 hr 45 min 46 sec) 
select_counter is 1022
Heartbeat CPU 0 instructions: 95000003 cycles: 124677530 heartbeat IPC: 0.741765 cumulative IPC: 0.704639 (Simulation time: 0 hr 46 min 10 sec) 
select_counter is 1020
Heartbeat CPU 0 instructions: 96000000 cycles: 126049268 heartbeat IPC: 0.729 cumulative IPC: 0.704913 (Simulation time: 0 hr 46 min 30 sec) 
select_counter is 1019
Heartbeat CPU 0 instructions: 97000000 cycles: 127475968 heartbeat IPC: 0.700918 cumulative IPC: 0.704867 (Simulation time: 0 hr 46 min 50 sec) 
select_counter is 1023
Heartbeat CPU 0 instructions: 98000002 cycles: 128801798 heartbeat IPC: 0.754246 cumulative IPC: 0.705392 (Simulation time: 0 hr 47 min 9 sec) 
select_counter is 1023
Heartbeat CPU 0 instructions: 99000001 cycles: 130196269 heartbeat IPC: 0.717117 cumulative IPC: 0.705522 (Simulation time: 0 hr 47 min 29 sec) 
select_counter is 1021
Heartbeat CPU 0 instructions: 100000000 cycles: 131617621 heartbeat IPC: 0.703555 cumulative IPC: 0.7055 (Simulation time: 0 hr 47 min 50 sec) 
select_counter is 1004
Heartbeat CPU 0 instructions: 101000003 cycles: 132990704 heartbeat IPC: 0.72829 cumulative IPC: 0.705742 (Simulation time: 0 hr 48 min 9 sec) 
select_counter is 1020
Heartbeat CPU 0 instructions: 102000002 cycles: 134355730 heartbeat IPC: 0.732586 cumulative IPC: 0.706024 (Simulation time: 0 hr 48 min 26 sec) 
select_counter is 1020
Heartbeat CPU 0 instructions: 103000000 cycles: 135815215 heartbeat IPC: 0.685172 cumulative IPC: 0.705793 (Simulation time: 0 hr 48 min 44 sec) 
select_counter is 1016
Heartbeat CPU 0 instructions: 104000000 cycles: 137199214 heartbeat IPC: 0.722544 cumulative IPC: 0.705967 (Simulation time: 0 hr 49 min 3 sec) 
select_counter is 1022
Heartbeat CPU 0 instructions: 105000002 cycles: 138562711 heartbeat IPC: 0.73341 cumulative IPC: 0.706245 (Simulation time: 0 hr 49 min 18 sec) 
select_counter is 1020
Heartbeat CPU 0 instructions: 106000001 cycles: 139911547 heartbeat IPC: 0.741379 cumulative IPC: 0.706594 (Simulation time: 0 hr 49 min 35 sec) 
select_counter is 1010
Heartbeat CPU 0 instructions: 107000000 cycles: 141370609 heartbeat IPC: 0.685371 cumulative IPC: 0.706368 (Simulation time: 0 hr 49 min 53 sec) 
select_counter is 1016
Heartbeat CPU 0 instructions: 108000000 cycles: 142760756 heartbeat IPC: 0.719348 cumulative IPC: 0.706498 (Simulation time: 0 hr 50 min 9 sec) 
select_counter is 1009
Heartbeat CPU 0 instructions: 109000002 cycles: 144108308 heartbeat IPC: 0.742088 cumulative IPC: 0.706841 (Simulation time: 0 hr 50 min 24 sec) 
select_counter is 1022
Heartbeat CPU 0 instructions: 110000000 cycles: 145534988 heartbeat IPC: 0.700927 cumulative IPC: 0.706781 (Simulation time: 0 hr 50 min 40 sec) 
select_counter is 1018
Finished CPU 0 instructions: 100000000 cycles: 141486531 cummulative IPC: 0.706781 (Simulation time: 0 hr 50 min 40 sec) 

ChampSim completed all CPUs

Region of Interest Statistics

CPU 0 cummulative IPC: 0.706781 instructions: 100000000 cycles: 141486531
LLC TOTAL     ACCESS:    5490975  HIT:    1509719  MISS:    3981256
LLC LOAD      ACCESS:     391078  HIT:        526  MISS:     390552
LLC RFO       ACCESS:    2345816  HIT:     492426  MISS:    1853390
LLC PREFETCH  ACCESS:     407935  HIT:        554  MISS:     407381
LLC WRITEBACK ACCESS:    2346146  HIT:    1016213  MISS:    1329933
Ship samples: size is 64
16, 54, 64, 100, 130, 168, 192, 210, 258, 294, 318, 337, 396, 440, 452, 480, 521, 563, 577, 591, 640, 690, 694, 733, 765, 816, 829, 843, 892, 937, 964, 983, 1017, 1068, 1077, 1102, 1150, 1177, 1214, 1235, 1274, 1313, 1333, 1349, 1388, 1440, 1468, 1486, 1529, 1566, 1588, 1614, 1640, 1695, 1707, 1742, 1765, 1816, 1844, 1867, 1898, 1943, 1971, 1988, 
Ship duel samples: size is 96
16, 26, 54, 64, 100, 115, 130, 152, 168, 192, 210, 231, 258, 274, 294, 318, 337, 368, 396, 410, 440, 452, 480, 500, 521, 536, 563, 577, 591, 621, 640, 668, 690, 694, 733, 748, 765, 777, 816, 829, 843, 871, 892, 911, 937, 964, 983, 995, 1017, 1043, 1068, 1077, 1102, 1127, 1150, 1160, 1177, 1214, 1235, 1251, 1274, 1293, 1313, 1333, 1349, 1365, 1388, 1415, 1440, 1468, 1486, 1492, 1529, 1536, 1566, 1588, 1614, 1637, 1640, 1670, 1695, 1707, 1742, 1752, 1765, 1789, 1816, 1844, 1867, 1889, 1898, 1922, 1943, 1971, 1988, 2006, 
Lime duel samples: size is 96
3, 36, 60, 76, 86, 117, 127, 158, 182, 203, 227, 237, 253, 283, 306, 324, 355, 371, 389, 415, 432, 446, 474, 493, 506, 534, 553, 585, 598, 628, 641, 665, 685, 701, 720, 749, 774, 782, 800, 830, 857, 880, 899, 921, 933, 952, 971, 992, 1008, 1045, 1050, 1084, 1111, 1123, 1134, 1174, 1196, 1205, 1233, 1246, 1266, 1286, 1321, 1340, 1356, 1368, 1396, 1416, 1436, 1462, 1489, 1496, 1521, 1546, 1554, 1593, 1616, 1620, 1639, 1659, 1699, 1702, 1733, 1758, 1774, 1796, 1820, 1836, 1865, 1877, 1904, 1913, 1945, 1966, 1992, 1997, 
Lime samples: size is 15
3, 127, 253, 389, 506, 641, 774, 899, 1008, 1134, 1266, 1396, 1521, 1639, 1774, 
Insertion Distribution: 
	LOAD 0 0 0 0 0 0 172 19861 
	RFO 13764 0 0 0 0 0 7194 86506 
	PREF 0 142 0 0 0 0 2420 17933 
	WRITEBACK 0 0 0 0 0 0 0 88169 
Total Prefetch Downgrades: 460
