
*** ChampSim Multicore Out-of-Order Simulator ***

Warmup Instructions: 10000000
Simulation Instructions: 100000000
Configuration: 2
Number of CPUs: 1
LLC sets: 2048
LLC ways: 16
Off-chip DRAM Channels: 1 Width: 64-bit Data Rate: 1600 MT/s

CPU 0 runs /datasets/cs240c-wi22-a00-public/data/Assignment2-gz/omnetpp_17B.trace.gz
CPU 0 L1D next line prefetcher
CPU 0 L2C IP-based stride prefetcher
Heartbeat CPU 0 instructions: 1000000 cycles: 559549 heartbeat IPC: 1.78715 cumulative IPC: 1.78715 (Simulation time: 0 hr 0 min 22 sec) 
select_counter is 425
Heartbeat CPU 0 instructions: 2000002 cycles: 1133750 heartbeat IPC: 1.74155 cumulative IPC: 1.76406 (Simulation time: 0 hr 0 min 44 sec) 
select_counter is 1016
Heartbeat CPU 0 instructions: 3000001 cycles: 1769166 heartbeat IPC: 1.57377 cumulative IPC: 1.69571 (Simulation time: 0 hr 1 min 3 sec) 
select_counter is 1018
Heartbeat CPU 0 instructions: 4000000 cycles: 2334024 heartbeat IPC: 1.77035 cumulative IPC: 1.71378 (Simulation time: 0 hr 1 min 25 sec) 
select_counter is 971
Heartbeat CPU 0 instructions: 5000002 cycles: 2892982 heartbeat IPC: 1.78905 cumulative IPC: 1.72832 (Simulation time: 0 hr 1 min 48 sec) 
select_counter is 926
Heartbeat CPU 0 instructions: 6000000 cycles: 3471463 heartbeat IPC: 1.72866 cumulative IPC: 1.72838 (Simulation time: 0 hr 2 min 8 sec) 
select_counter is 671
Heartbeat CPU 0 instructions: 7000000 cycles: 4035849 heartbeat IPC: 1.77184 cumulative IPC: 1.73446 (Simulation time: 0 hr 2 min 30 sec) 
select_counter is 909
Heartbeat CPU 0 instructions: 8000000 cycles: 4697582 heartbeat IPC: 1.51118 cumulative IPC: 1.703 (Simulation time: 0 hr 2 min 48 sec) 
select_counter is 908
Heartbeat CPU 0 instructions: 9000000 cycles: 5359387 heartbeat IPC: 1.51102 cumulative IPC: 1.6793 (Simulation time: 0 hr 3 min 7 sec) 
select_counter is 909
Heartbeat CPU 0 instructions: 10000001 cycles: 6020956 heartbeat IPC: 1.51156 cumulative IPC: 1.66087 (Simulation time: 0 hr 3 min 26 sec) 
select_counter is 909

Warmup complete CPU 0 instructions: 10000001 cycles: 6020956 (Simulation time: 0 hr 3 min 26 sec) 

Heartbeat CPU 0 instructions: 11000001 cycles: 7065772 heartbeat IPC: 0.957106 cumulative IPC: 0.957106 (Simulation time: 0 hr 3 min 46 sec) 
select_counter is 909
Heartbeat CPU 0 instructions: 12000000 cycles: 8110315 heartbeat IPC: 0.957355 cumulative IPC: 0.957231 (Simulation time: 0 hr 4 min 5 sec) 
select_counter is 909
Heartbeat CPU 0 instructions: 13000000 cycles: 9180227 heartbeat IPC: 0.934656 cumulative IPC: 0.949586 (Simulation time: 0 hr 4 min 24 sec) 
select_counter is 907
Heartbeat CPU 0 instructions: 14000001 cycles: 10224478 heartbeat IPC: 0.957625 cumulative IPC: 0.951583 (Simulation time: 0 hr 4 min 45 sec) 
select_counter is 911
Heartbeat CPU 0 instructions: 15000000 cycles: 11268686 heartbeat IPC: 0.957663 cumulative IPC: 0.952793 (Simulation time: 0 hr 5 min 4 sec) 
select_counter is 911
Heartbeat CPU 0 instructions: 16000000 cycles: 12312723 heartbeat IPC: 0.95782 cumulative IPC: 0.953627 (Simulation time: 0 hr 5 min 22 sec) 
select_counter is 914
Heartbeat CPU 0 instructions: 17000000 cycles: 13358260 heartbeat IPC: 0.956446 cumulative IPC: 0.954029 (Simulation time: 0 hr 5 min 42 sec) 
select_counter is 915
Heartbeat CPU 0 instructions: 18000001 cycles: 14399584 heartbeat IPC: 0.960317 cumulative IPC: 0.95481 (Simulation time: 0 hr 6 min 0 sec) 
select_counter is 913
Heartbeat CPU 0 instructions: 19000002 cycles: 15434189 heartbeat IPC: 0.966553 cumulative IPC: 0.956101 (Simulation time: 0 hr 6 min 18 sec) 
select_counter is 917
Heartbeat CPU 0 instructions: 20000000 cycles: 18721317 heartbeat IPC: 0.304216 cumulative IPC: 0.787379 (Simulation time: 0 hr 6 min 46 sec) 
select_counter is 787
Heartbeat CPU 0 instructions: 21000000 cycles: 21185354 heartbeat IPC: 0.405838 cumulative IPC: 0.725383 (Simulation time: 0 hr 7 min 10 sec) 
select_counter is 344
Heartbeat CPU 0 instructions: 22000002 cycles: 23006918 heartbeat IPC: 0.54898 cumulative IPC: 0.706466 (Simulation time: 0 hr 7 min 32 sec) 
select_counter is 620
Heartbeat CPU 0 instructions: 23000000 cycles: 26247661 heartbeat IPC: 0.308571 cumulative IPC: 0.642715 (Simulation time: 0 hr 7 min 59 sec) 
select_counter is 425
Heartbeat CPU 0 instructions: 24000000 cycles: 29494955 heartbeat IPC: 0.307949 cumulative IPC: 0.596404 (Simulation time: 0 hr 8 min 26 sec) 
select_counter is 1014
Heartbeat CPU 0 instructions: 25000001 cycles: 32100541 heartbeat IPC: 0.383791 cumulative IPC: 0.575163 (Simulation time: 0 hr 8 min 49 sec) 
select_counter is 607
Heartbeat CPU 0 instructions: 26000001 cycles: 33778309 heartbeat IPC: 0.59603 cumulative IPC: 0.576424 (Simulation time: 0 hr 9 min 14 sec) 
select_counter is 812
Heartbeat CPU 0 instructions: 27000000 cycles: 37054716 heartbeat IPC: 0.305212 cumulative IPC: 0.547791 (Simulation time: 0 hr 9 min 39 sec) 
select_counter is 561
Heartbeat CPU 0 instructions: 28000000 cycles: 40276122 heartbeat IPC: 0.310423 cumulative IPC: 0.525468 (Simulation time: 0 hr 10 min 6 sec) 
select_counter is 284
Heartbeat CPU 0 instructions: 29000000 cycles: 43045794 heartbeat IPC: 0.361054 cumulative IPC: 0.513169 (Simulation time: 0 hr 10 min 30 sec) 
select_counter is 26
Heartbeat CPU 0 instructions: 30000000 cycles: 44533648 heartbeat IPC: 0.672109 cumulative IPC: 0.519309 (Simulation time: 0 hr 10 min 50 sec) 
select_counter is 1012
Heartbeat CPU 0 instructions: 31000000 cycles: 47773324 heartbeat IPC: 0.308673 cumulative IPC: 0.502965 (Simulation time: 0 hr 11 min 15 sec) 
select_counter is 722
Heartbeat CPU 0 instructions: 32000000 cycles: 51034007 heartbeat IPC: 0.306684 cumulative IPC: 0.488747 (Simulation time: 0 hr 11 min 42 sec) 
select_counter is 439
Heartbeat CPU 0 instructions: 33000001 cycles: 53960942 heartbeat IPC: 0.341655 cumulative IPC: 0.479767 (Simulation time: 0 hr 12 min 7 sec) 
select_counter is 190
Heartbeat CPU 0 instructions: 34000000 cycles: 55264586 heartbeat IPC: 0.76708 cumulative IPC: 0.487373 (Simulation time: 0 hr 12 min 27 sec) 
select_counter is 140
Heartbeat CPU 0 instructions: 35000003 cycles: 58466390 heartbeat IPC: 0.312325 cumulative IPC: 0.476686 (Simulation time: 0 hr 12 min 55 sec) 
select_counter is 898
Heartbeat CPU 0 instructions: 36000000 cycles: 61745487 heartbeat IPC: 0.304961 cumulative IPC: 0.466581 (Simulation time: 0 hr 13 min 22 sec) 
select_counter is 608
Heartbeat CPU 0 instructions: 37000001 cycles: 64598450 heartbeat IPC: 0.350513 cumulative IPC: 0.460928 (Simulation time: 0 hr 13 min 47 sec) 
select_counter is 390
Heartbeat CPU 0 instructions: 38000000 cycles: 66008787 heartbeat IPC: 0.70905 cumulative IPC: 0.466761 (Simulation time: 0 hr 14 min 8 sec) 
select_counter is 330
Heartbeat CPU 0 instructions: 39000000 cycles: 69213697 heartbeat IPC: 0.312021 cumulative IPC: 0.458913 (Simulation time: 0 hr 14 min 32 sec) 
select_counter is 56
Heartbeat CPU 0 instructions: 40000000 cycles: 72433920 heartbeat IPC: 0.310537 cumulative IPC: 0.451719 (Simulation time: 0 hr 15 min 0 sec) 
select_counter is 793
Heartbeat CPU 0 instructions: 41000002 cycles: 75201488 heartbeat IPC: 0.361329 cumulative IPC: 0.448103 (Simulation time: 0 hr 15 min 22 sec) 
select_counter is 581
Heartbeat CPU 0 instructions: 42000000 cycles: 76712724 heartbeat IPC: 0.661709 cumulative IPC: 0.452669 (Simulation time: 0 hr 15 min 45 sec) 
select_counter is 514
Heartbeat CPU 0 instructions: 43000003 cycles: 81971653 heartbeat IPC: 0.190153 cumulative IPC: 0.434492 (Simulation time: 0 hr 16 min 17 sec) 
select_counter is 56
Heartbeat CPU 0 instructions: 44000000 cycles: 83018387 heartbeat IPC: 0.95535 cumulative IPC: 0.441573 (Simulation time: 0 hr 16 min 36 sec) 
select_counter is 60
Heartbeat CPU 0 instructions: 45000003 cycles: 84061167 heartbeat IPC: 0.958978 cumulative IPC: 0.448487 (Simulation time: 0 hr 16 min 58 sec) 
select_counter is 58
Heartbeat CPU 0 instructions: 46000001 cycles: 85104234 heartbeat IPC: 0.958709 cumulative IPC: 0.455216 (Simulation time: 0 hr 17 min 18 sec) 
select_counter is 56
Heartbeat CPU 0 instructions: 47000001 cycles: 86148769 heartbeat IPC: 0.957364 cumulative IPC: 0.461762 (Simulation time: 0 hr 17 min 38 sec) 
select_counter is 58
Heartbeat CPU 0 instructions: 48000000 cycles: 87191947 heartbeat IPC: 0.958608 cumulative IPC: 0.468148 (Simulation time: 0 hr 17 min 57 sec) 
select_counter is 62
Heartbeat CPU 0 instructions: 49000000 cycles: 88233753 heartbeat IPC: 0.959872 cumulative IPC: 0.474379 (Simulation time: 0 hr 18 min 19 sec) 
select_counter is 61
Heartbeat CPU 0 instructions: 50000000 cycles: 89276541 heartbeat IPC: 0.958968 cumulative IPC: 0.480448 (Simulation time: 0 hr 18 min 38 sec) 
select_counter is 61
Heartbeat CPU 0 instructions: 51000002 cycles: 90319429 heartbeat IPC: 0.958878 cumulative IPC: 0.486367 (Simulation time: 0 hr 18 min 56 sec) 
select_counter is 60
Heartbeat CPU 0 instructions: 52000000 cycles: 91363668 heartbeat IPC: 0.957633 cumulative IPC: 0.492133 (Simulation time: 0 hr 19 min 17 sec) 
select_counter is 60
Heartbeat CPU 0 instructions: 53000001 cycles: 92406140 heartbeat IPC: 0.959259 cumulative IPC: 0.497771 (Simulation time: 0 hr 19 min 37 sec) 
select_counter is 61
Heartbeat CPU 0 instructions: 54000002 cycles: 93474375 heartbeat IPC: 0.936125 cumulative IPC: 0.503125 (Simulation time: 0 hr 20 min 0 sec) 
select_counter is 59
Heartbeat CPU 0 instructions: 55000003 cycles: 94514650 heartbeat IPC: 0.961285 cumulative IPC: 0.508511 (Simulation time: 0 hr 20 min 21 sec) 
select_counter is 60
Heartbeat CPU 0 instructions: 56000000 cycles: 96740511 heartbeat IPC: 0.449263 cumulative IPC: 0.507057 (Simulation time: 0 hr 20 min 44 sec) 
select_counter is 905
Heartbeat CPU 0 instructions: 57000003 cycles: 98772449 heartbeat IPC: 0.492142 cumulative IPC: 0.50673 (Simulation time: 0 hr 21 min 8 sec) 
select_counter is 798
Heartbeat CPU 0 instructions: 58000000 cycles: 102039671 heartbeat IPC: 0.306069 cumulative IPC: 0.499903 (Simulation time: 0 hr 21 min 33 sec) 
select_counter is 511
Heartbeat CPU 0 instructions: 59000003 cycles: 105255138 heartbeat IPC: 0.310998 cumulative IPC: 0.493781 (Simulation time: 0 hr 21 min 58 sec) 
select_counter is 240
Heartbeat CPU 0 instructions: 60000000 cycles: 107627938 heartbeat IPC: 0.421442 cumulative IPC: 0.492092 (Simulation time: 0 hr 22 min 21 sec) 
select_counter is 73
Heartbeat CPU 0 instructions: 61000001 cycles: 109485564 heartbeat IPC: 0.538322 cumulative IPC: 0.492922 (Simulation time: 0 hr 22 min 43 sec) 
select_counter is 988
Heartbeat CPU 0 instructions: 62000001 cycles: 112710266 heartbeat IPC: 0.310106 cumulative IPC: 0.487397 (Simulation time: 0 hr 23 min 9 sec) 
select_counter is 694
Heartbeat CPU 0 instructions: 63000000 cycles: 115972604 heartbeat IPC: 0.306528 cumulative IPC: 0.48203 (Simulation time: 0 hr 23 min 36 sec) 
select_counter is 422
Heartbeat CPU 0 instructions: 64000000 cycles: 118488850 heartbeat IPC: 0.397417 cumulative IPC: 0.480137 (Simulation time: 0 hr 24 min 2 sec) 
select_counter is 232
Heartbeat CPU 0 instructions: 65000000 cycles: 120193430 heartbeat IPC: 0.586655 cumulative IPC: 0.481727 (Simulation time: 0 hr 24 min 24 sec) 
select_counter is 141
Heartbeat CPU 0 instructions: 66000000 cycles: 123394104 heartbeat IPC: 0.312434 cumulative IPC: 0.477111 (Simulation time: 0 hr 24 min 51 sec) 
select_counter is 874
Heartbeat CPU 0 instructions: 67000001 cycles: 126645132 heartbeat IPC: 0.307595 cumulative IPC: 0.472542 (Simulation time: 0 hr 25 min 17 sec) 
select_counter is 598
Heartbeat CPU 0 instructions: 68000000 cycles: 129372474 heartbeat IPC: 0.366657 cumulative IPC: 0.470201 (Simulation time: 0 hr 25 min 42 sec) 
select_counter is 393
Heartbeat CPU 0 instructions: 69000001 cycles: 130892773 heartbeat IPC: 0.657766 cumulative IPC: 0.472485 (Simulation time: 0 hr 26 min 5 sec) 
select_counter is 328
Heartbeat CPU 0 instructions: 70000001 cycles: 134080316 heartbeat IPC: 0.313721 cumulative IPC: 0.468533 (Simulation time: 0 hr 26 min 33 sec) 
select_counter is 78
Heartbeat CPU 0 instructions: 71000001 cycles: 137298672 heartbeat IPC: 0.310718 cumulative IPC: 0.464664 (Simulation time: 0 hr 27 min 2 sec) 
select_counter is 844
Heartbeat CPU 0 instructions: 72000000 cycles: 140063959 heartbeat IPC: 0.361626 cumulative IPC: 0.462538 (Simulation time: 0 hr 27 min 28 sec) 
select_counter is 639
Heartbeat CPU 0 instructions: 73000000 cycles: 141601477 heartbeat IPC: 0.650399 cumulative IPC: 0.464669 (Simulation time: 0 hr 27 min 52 sec) 
select_counter is 567
Heartbeat CPU 0 instructions: 74000003 cycles: 144811742 heartbeat IPC: 0.311502 cumulative IPC: 0.461126 (Simulation time: 0 hr 28 min 20 sec) 
select_counter is 309
Heartbeat CPU 0 instructions: 75000001 cycles: 148022801 heartbeat IPC: 0.311423 cumulative IPC: 0.457741 (Simulation time: 0 hr 28 min 47 sec) 
select_counter is 45
Heartbeat CPU 0 instructions: 76000000 cycles: 150660123 heartbeat IPC: 0.379172 cumulative IPC: 0.456308 (Simulation time: 0 hr 29 min 14 sec) 
select_counter is 880
Heartbeat CPU 0 instructions: 77000001 cycles: 152293767 heartbeat IPC: 0.612129 cumulative IPC: 0.458048 (Simulation time: 0 hr 29 min 38 sec) 
select_counter is 790
Heartbeat CPU 0 instructions: 78000000 cycles: 155547989 heartbeat IPC: 0.307293 cumulative IPC: 0.454767 (Simulation time: 0 hr 30 min 6 sec) 
select_counter is 499
Heartbeat CPU 0 instructions: 79000000 cycles: 158915280 heartbeat IPC: 0.296975 cumulative IPC: 0.451292 (Simulation time: 0 hr 30 min 35 sec) 
select_counter is 229
Heartbeat CPU 0 instructions: 80000000 cycles: 160743329 heartbeat IPC: 0.547031 cumulative IPC: 0.452423 (Simulation time: 0 hr 30 min 57 sec) 
select_counter is 120
Heartbeat CPU 0 instructions: 81000001 cycles: 163135124 heartbeat IPC: 0.418096 cumulative IPC: 0.451901 (Simulation time: 0 hr 31 min 21 sec) 
select_counter is 988
Heartbeat CPU 0 instructions: 82000000 cycles: 166358948 heartbeat IPC: 0.31019 cumulative IPC: 0.449051 (Simulation time: 0 hr 31 min 50 sec) 
select_counter is 697
Heartbeat CPU 0 instructions: 83000000 cycles: 169612610 heartbeat IPC: 0.307346 cumulative IPC: 0.446233 (Simulation time: 0 hr 32 min 19 sec) 
select_counter is 415
Heartbeat CPU 0 instructions: 84000000 cycles: 171401664 heartbeat IPC: 0.558955 cumulative IPC: 0.447452 (Simulation time: 0 hr 32 min 41 sec) 
select_counter is 310
Heartbeat CPU 0 instructions: 85000003 cycles: 173836804 heartbeat IPC: 0.410655 cumulative IPC: 0.446918 (Simulation time: 0 hr 33 min 7 sec) 
select_counter is 149
Heartbeat CPU 0 instructions: 86000001 cycles: 177050086 heartbeat IPC: 0.311208 cumulative IPC: 0.444369 (Simulation time: 0 hr 33 min 34 sec) 
select_counter is 897
Heartbeat CPU 0 instructions: 87000000 cycles: 180295670 heartbeat IPC: 0.308111 cumulative IPC: 0.441831 (Simulation time: 0 hr 34 min 0 sec) 
select_counter is 619
Heartbeat CPU 0 instructions: 88000000 cycles: 181968334 heartbeat IPC: 0.597849 cumulative IPC: 0.443314 (Simulation time: 0 hr 34 min 21 sec) 
select_counter is 518
Heartbeat CPU 0 instructions: 89000000 cycles: 186602123 heartbeat IPC: 0.215806 cumulative IPC: 0.437476 (Simulation time: 0 hr 34 min 51 sec) 
select_counter is 178
Heartbeat CPU 0 instructions: 90000002 cycles: 187645567 heartbeat IPC: 0.958367 cumulative IPC: 0.440469 (Simulation time: 0 hr 35 min 12 sec) 
select_counter is 179
Heartbeat CPU 0 instructions: 91000001 cycles: 188689775 heartbeat IPC: 0.957663 cumulative IPC: 0.443425 (Simulation time: 0 hr 35 min 34 sec) 
select_counter is 179
Heartbeat CPU 0 instructions: 92000000 cycles: 189733421 heartbeat IPC: 0.958178 cumulative IPC: 0.44635 (Simulation time: 0 hr 35 min 55 sec) 
select_counter is 178
Heartbeat CPU 0 instructions: 93000002 cycles: 190777686 heartbeat IPC: 0.957613 cumulative IPC: 0.449239 (Simulation time: 0 hr 36 min 16 sec) 
select_counter is 174
Heartbeat CPU 0 instructions: 94000001 cycles: 191821514 heartbeat IPC: 0.958011 cumulative IPC: 0.452098 (Simulation time: 0 hr 36 min 38 sec) 
select_counter is 174
Heartbeat CPU 0 instructions: 95000000 cycles: 192865778 heartbeat IPC: 0.957611 cumulative IPC: 0.454923 (Simulation time: 0 hr 37 min 0 sec) 
select_counter is 174
Heartbeat CPU 0 instructions: 96000000 cycles: 193910648 heartbeat IPC: 0.957057 cumulative IPC: 0.457715 (Simulation time: 0 hr 37 min 21 sec) 
select_counter is 176
Heartbeat CPU 0 instructions: 97000002 cycles: 194981500 heartbeat IPC: 0.933838 cumulative IPC: 0.460414 (Simulation time: 0 hr 37 min 41 sec) 
select_counter is 175
Heartbeat CPU 0 instructions: 98000000 cycles: 196027313 heartbeat IPC: 0.956192 cumulative IPC: 0.463142 (Simulation time: 0 hr 38 min 1 sec) 
select_counter is 176
Heartbeat CPU 0 instructions: 99000003 cycles: 197065835 heartbeat IPC: 0.96291 cumulative IPC: 0.465859 (Simulation time: 0 hr 38 min 21 sec) 
select_counter is 176
Heartbeat CPU 0 instructions: 100000000 cycles: 198102289 heartbeat IPC: 0.964825 cumulative IPC: 0.468552 (Simulation time: 0 hr 38 min 43 sec) 
select_counter is 179
Heartbeat CPU 0 instructions: 101000001 cycles: 199143194 heartbeat IPC: 0.960703 cumulative IPC: 0.471204 (Simulation time: 0 hr 39 min 5 sec) 
select_counter is 179
Heartbeat CPU 0 instructions: 102000001 cycles: 202289595 heartbeat IPC: 0.317823 cumulative IPC: 0.468745 (Simulation time: 0 hr 39 min 31 sec) 
select_counter is 946
Heartbeat CPU 0 instructions: 103000001 cycles: 203672720 heartbeat IPC: 0.723 cumulative IPC: 0.470525 (Simulation time: 0 hr 39 min 51 sec) 
select_counter is 882
Heartbeat CPU 0 instructions: 104000000 cycles: 206589550 heartbeat IPC: 0.342838 cumulative IPC: 0.468668 (Simulation time: 0 hr 40 min 15 sec) 
select_counter is 682
Heartbeat CPU 0 instructions: 105000000 cycles: 209840779 heartbeat IPC: 0.307576 cumulative IPC: 0.466098 (Simulation time: 0 hr 40 min 40 sec) 
select_counter is 410
Heartbeat CPU 0 instructions: 106000000 cycles: 212992537 heartbeat IPC: 0.317283 cumulative IPC: 0.463832 (Simulation time: 0 hr 41 min 4 sec) 
select_counter is 167
Heartbeat CPU 0 instructions: 107000001 cycles: 214524526 heartbeat IPC: 0.652747 cumulative IPC: 0.46522 (Simulation time: 0 hr 41 min 25 sec) 
select_counter is 113
Heartbeat CPU 0 instructions: 108000000 cycles: 217270729 heartbeat IPC: 0.364139 cumulative IPC: 0.463906 (Simulation time: 0 hr 41 min 49 sec) 
select_counter is 918
Heartbeat CPU 0 instructions: 109000000 cycles: 220500319 heartbeat IPC: 0.309637 cumulative IPC: 0.461583 (Simulation time: 0 hr 42 min 14 sec) 
select_counter is 653
Heartbeat CPU 0 instructions: 110000000 cycles: 223718258 heartbeat IPC: 0.310758 cumulative IPC: 0.459353 (Simulation time: 0 hr 42 min 38 sec) 
select_counter is 392
Finished CPU 0 instructions: 100000003 cycles: 217697307 cummulative IPC: 0.459353 (Simulation time: 0 hr 42 min 38 sec) 

ChampSim completed all CPUs

Region of Interest Statistics

CPU 0 cummulative IPC: 0.459353 instructions: 100000003 cycles: 217697307
LLC TOTAL     ACCESS:    3282814  HIT:    1478629  MISS:    1804185
LLC LOAD      ACCESS:    1561423  HIT:    1292742  MISS:     268681
LLC RFO       ACCESS:       5220  HIT:       2290  MISS:       2930
LLC PREFETCH  ACCESS:    1699323  HIT:     176845  MISS:    1522478
LLC WRITEBACK ACCESS:      16848  HIT:       6752  MISS:      10096
Ship samples: size is 64
5, 60, 80, 100, 137, 172, 190, 213, 272, 308, 332, 342, 385, 439, 448, 481, 512, 563, 573, 602, 649, 688, 707, 720, 758, 800, 822, 852, 884, 930, 948, 972, 1010, 1068, 1071, 1102, 1154, 1187, 1203, 1225, 1262, 1307, 1323, 1344, 1388, 1431, 1461, 1474, 1515, 1573, 1582, 1606, 1656, 1697, 1706, 1730, 1776, 1811, 1846, 1849, 1909, 1940, 1972, 1992, 
Ship duel samples: size is 96
5, 36, 60, 80, 100, 124, 137, 161, 172, 190, 213, 243, 272, 274, 308, 332, 342, 357, 385, 416, 439, 448, 481, 503, 512, 545, 563, 573, 602, 610, 649, 661, 688, 707, 720, 735, 758, 797, 800, 822, 852, 863, 884, 908, 930, 948, 972, 989, 1010, 1040, 1068, 1071, 1102, 1116, 1154, 1162, 1187, 1203, 1225, 1258, 1262, 1300, 1307, 1323, 1344, 1367, 1388, 1411, 1431, 1461, 1474, 1494, 1515, 1540, 1573, 1582, 1606, 1636, 1656, 1664, 1697, 1706, 1730, 1757, 1776, 1802, 1811, 1846, 1849, 1872, 1909, 1931, 1940, 1972, 1992, 2004, 
Lime duel samples: size is 96
8, 21, 52, 74, 91, 105, 130, 150, 177, 204, 214, 247, 263, 278, 297, 316, 348, 372, 383, 410, 440, 451, 479, 484, 517, 540, 551, 574, 595, 609, 632, 664, 672, 706, 715, 740, 767, 783, 807, 838, 840, 874, 896, 913, 943, 962, 977, 995, 1017, 1045, 1070, 1077, 1095, 1129, 1141, 1169, 1185, 1208, 1219, 1255, 1271, 1282, 1308, 1334, 1358, 1373, 1401, 1412, 1440, 1452, 1473, 1501, 1528, 1548, 1574, 1587, 1608, 1627, 1638, 1659, 1683, 1719, 1727, 1750, 1775, 1797, 1806, 1847, 1848, 1870, 1903, 1922, 1935, 1973, 1974, 2010, 
Lime samples: size is 15
8, 130, 263, 383, 517, 632, 767, 896, 1017, 1141, 1271, 1401, 1528, 1638, 1775, 
Insertion Distribution: 
	LOAD 7864 0 0 0 0 0 20551 125644 
	RFO 0 0 0 0 0 0 490 1123 
	PREF 0 235 0 0 0 0 29817 795098 
	WRITEBACK 0 0 0 0 0 0 0 4547 
Total Prefetch Downgrades: 20488
