
*** ChampSim Multicore Out-of-Order Simulator ***

Warmup Instructions: 10000000
Simulation Instructions: 100000000
Configuration: 2
Number of CPUs: 1
LLC sets: 2048
LLC ways: 16
Off-chip DRAM Channels: 1 Width: 64-bit Data Rate: 1600 MT/s

CPU 0 runs /datasets/cs240c-wi22-a00-public/data/Assignment2-gz/soplex_205B.trace.gz
CPU 0 L1D next line prefetcher
CPU 0 L2C IP-based stride prefetcher
Heartbeat CPU 0 instructions: 1000000 cycles: 395620 heartbeat IPC: 2.52768 cumulative IPC: 2.52768 (Simulation time: 0 hr 0 min 22 sec) 
select_counter is 494
Heartbeat CPU 0 instructions: 2000002 cycles: 925043 heartbeat IPC: 1.88885 cumulative IPC: 2.16206 (Simulation time: 0 hr 0 min 45 sec) 
select_counter is 629
Heartbeat CPU 0 instructions: 3000000 cycles: 1397044 heartbeat IPC: 2.11864 cumulative IPC: 2.14739 (Simulation time: 0 hr 1 min 16 sec) 
select_counter is 411
Heartbeat CPU 0 instructions: 4000000 cycles: 1758277 heartbeat IPC: 2.7683 cumulative IPC: 2.27495 (Simulation time: 0 hr 1 min 41 sec) 
select_counter is 874
Heartbeat CPU 0 instructions: 5000003 cycles: 2201769 heartbeat IPC: 2.25484 cumulative IPC: 2.2709 (Simulation time: 0 hr 2 min 10 sec) 
select_counter is 1023
Heartbeat CPU 0 instructions: 6000003 cycles: 2621961 heartbeat IPC: 2.37986 cumulative IPC: 2.28836 (Simulation time: 0 hr 2 min 37 sec) 
select_counter is 1021
Heartbeat CPU 0 instructions: 7000000 cycles: 3006396 heartbeat IPC: 2.60121 cumulative IPC: 2.32837 (Simulation time: 0 hr 3 min 1 sec) 
select_counter is 1023
Heartbeat CPU 0 instructions: 8000000 cycles: 3400614 heartbeat IPC: 2.53667 cumulative IPC: 2.35252 (Simulation time: 0 hr 3 min 27 sec) 
select_counter is 981
Heartbeat CPU 0 instructions: 9000003 cycles: 3925415 heartbeat IPC: 1.90549 cumulative IPC: 2.29275 (Simulation time: 0 hr 3 min 51 sec) 
select_counter is 1011
Heartbeat CPU 0 instructions: 10000000 cycles: 4410657 heartbeat IPC: 2.06082 cumulative IPC: 2.26724 (Simulation time: 0 hr 4 min 20 sec) 
select_counter is 631

Warmup complete CPU 0 instructions: 10000004 cycles: 4410659 (Simulation time: 0 hr 4 min 20 sec) 

Heartbeat CPU 0 instructions: 11000001 cycles: 6994842 heartbeat IPC: 0.38697 cumulative IPC: 0.386968 (Simulation time: 0 hr 4 min 53 sec) 
select_counter is 366
Heartbeat CPU 0 instructions: 12000000 cycles: 9205768 heartbeat IPC: 0.452299 cumulative IPC: 0.417091 (Simulation time: 0 hr 5 min 25 sec) 
select_counter is 1014
Heartbeat CPU 0 instructions: 13000000 cycles: 12836573 heartbeat IPC: 0.275421 cumulative IPC: 0.356044 (Simulation time: 0 hr 6 min 3 sec) 
select_counter is 553
Heartbeat CPU 0 instructions: 14000003 cycles: 14159744 heartbeat IPC: 0.755762 cumulative IPC: 0.410295 (Simulation time: 0 hr 6 min 25 sec) 
select_counter is 474
Heartbeat CPU 0 instructions: 15000000 cycles: 15904742 heartbeat IPC: 0.573065 cumulative IPC: 0.435006 (Simulation time: 0 hr 6 min 47 sec) 
select_counter is 398
Heartbeat CPU 0 instructions: 16000000 cycles: 19013425 heartbeat IPC: 0.32168 cumulative IPC: 0.410881 (Simulation time: 0 hr 7 min 22 sec) 
select_counter is 939
Heartbeat CPU 0 instructions: 17000001 cycles: 22666926 heartbeat IPC: 0.27371 cumulative IPC: 0.38343 (Simulation time: 0 hr 8 min 6 sec) 
select_counter is 471
Heartbeat CPU 0 instructions: 18000000 cycles: 29294596 heartbeat IPC: 0.150882 cumulative IPC: 0.321492 (Simulation time: 0 hr 8 min 53 sec) 
select_counter is 1014
Heartbeat CPU 0 instructions: 19000003 cycles: 33847134 heartbeat IPC: 0.219658 cumulative IPC: 0.305743 (Simulation time: 0 hr 9 min 38 sec) 
select_counter is 958
Heartbeat CPU 0 instructions: 20000000 cycles: 36081470 heartbeat IPC: 0.447559 cumulative IPC: 0.315748 (Simulation time: 0 hr 10 min 17 sec) 
select_counter is 1019
Heartbeat CPU 0 instructions: 21000001 cycles: 40724569 heartbeat IPC: 0.215374 cumulative IPC: 0.302914 (Simulation time: 0 hr 11 min 1 sec) 
select_counter is 1020
Heartbeat CPU 0 instructions: 22000001 cycles: 44891944 heartbeat IPC: 0.239959 cumulative IPC: 0.296433 (Simulation time: 0 hr 11 min 39 sec) 
select_counter is 1020
Heartbeat CPU 0 instructions: 23000002 cycles: 48112617 heartbeat IPC: 0.310494 cumulative IPC: 0.297469 (Simulation time: 0 hr 12 min 13 sec) 
select_counter is 1018
Heartbeat CPU 0 instructions: 24000000 cycles: 51937524 heartbeat IPC: 0.261444 cumulative IPC: 0.29457 (Simulation time: 0 hr 12 min 50 sec) 
select_counter is 1021
Heartbeat CPU 0 instructions: 25000000 cycles: 55842432 heartbeat IPC: 0.256088 cumulative IPC: 0.291648 (Simulation time: 0 hr 13 min 29 sec) 
select_counter is 1022
Heartbeat CPU 0 instructions: 26000002 cycles: 59605527 heartbeat IPC: 0.265739 cumulative IPC: 0.289882 (Simulation time: 0 hr 14 min 6 sec) 
select_counter is 992
Heartbeat CPU 0 instructions: 27000000 cycles: 62195011 heartbeat IPC: 0.386177 cumulative IPC: 0.294197 (Simulation time: 0 hr 14 min 36 sec) 
select_counter is 933
Heartbeat CPU 0 instructions: 28000000 cycles: 65847687 heartbeat IPC: 0.273772 cumulative IPC: 0.292983 (Simulation time: 0 hr 15 min 16 sec) 
select_counter is 1012
Heartbeat CPU 0 instructions: 29000002 cycles: 67886996 heartbeat IPC: 0.490363 cumulative IPC: 0.299324 (Simulation time: 0 hr 15 min 49 sec) 
select_counter is 1023
Heartbeat CPU 0 instructions: 30000003 cycles: 68803397 heartbeat IPC: 1.09123 cumulative IPC: 0.310594 (Simulation time: 0 hr 16 min 16 sec) 
select_counter is 1023
Heartbeat CPU 0 instructions: 31000003 cycles: 70138517 heartbeat IPC: 0.748996 cumulative IPC: 0.319499 (Simulation time: 0 hr 16 min 42 sec) 
select_counter is 1023
Heartbeat CPU 0 instructions: 32000000 cycles: 73319673 heartbeat IPC: 0.31435 cumulative IPC: 0.319262 (Simulation time: 0 hr 17 min 20 sec) 
select_counter is 1023
Heartbeat CPU 0 instructions: 33000000 cycles: 76347322 heartbeat IPC: 0.330289 cumulative IPC: 0.319726 (Simulation time: 0 hr 18 min 0 sec) 
select_counter is 571
Heartbeat CPU 0 instructions: 34000002 cycles: 78062115 heartbeat IPC: 0.583162 cumulative IPC: 0.325859 (Simulation time: 0 hr 18 min 34 sec) 
select_counter is 576
Heartbeat CPU 0 instructions: 35000003 cycles: 80768485 heartbeat IPC: 0.369499 cumulative IPC: 0.327406 (Simulation time: 0 hr 19 min 5 sec) 
select_counter is 125
Heartbeat CPU 0 instructions: 36000000 cycles: 83206055 heartbeat IPC: 0.410243 cumulative IPC: 0.329968 (Simulation time: 0 hr 19 min 39 sec) 
select_counter is 295
Heartbeat CPU 0 instructions: 37000000 cycles: 86707555 heartbeat IPC: 0.285592 cumulative IPC: 0.32808 (Simulation time: 0 hr 20 min 16 sec) 
select_counter is 286
Heartbeat CPU 0 instructions: 38000002 cycles: 87985681 heartbeat IPC: 0.782397 cumulative IPC: 0.335028 (Simulation time: 0 hr 20 min 38 sec) 
select_counter is 194
Heartbeat CPU 0 instructions: 39000003 cycles: 89867855 heartbeat IPC: 0.531301 cumulative IPC: 0.339351 (Simulation time: 0 hr 21 min 3 sec) 
select_counter is 15
Heartbeat CPU 0 instructions: 40000000 cycles: 93330131 heartbeat IPC: 0.288826 cumulative IPC: 0.337384 (Simulation time: 0 hr 21 min 39 sec) 
select_counter is 866
Heartbeat CPU 0 instructions: 41000000 cycles: 96784966 heartbeat IPC: 0.289449 cumulative IPC: 0.335591 (Simulation time: 0 hr 22 min 16 sec) 
select_counter is 467
Heartbeat CPU 0 instructions: 42000001 cycles: 98577087 heartbeat IPC: 0.557999 cumulative IPC: 0.339824 (Simulation time: 0 hr 22 min 45 sec) 
select_counter is 150
Heartbeat CPU 0 instructions: 43000000 cycles: 102079023 heartbeat IPC: 0.285556 cumulative IPC: 0.337878 (Simulation time: 0 hr 23 min 30 sec) 
select_counter is 609
Heartbeat CPU 0 instructions: 44000000 cycles: 104425703 heartbeat IPC: 0.426134 cumulative IPC: 0.339949 (Simulation time: 0 hr 23 min 57 sec) 
select_counter is 366
Heartbeat CPU 0 instructions: 45000001 cycles: 105690308 heartbeat IPC: 0.790762 cumulative IPC: 0.345578 (Simulation time: 0 hr 24 min 20 sec) 
select_counter is 293
Heartbeat CPU 0 instructions: 46000002 cycles: 108523916 heartbeat IPC: 0.352907 cumulative IPC: 0.345777 (Simulation time: 0 hr 24 min 50 sec) 
select_counter is 228
Heartbeat CPU 0 instructions: 47000000 cycles: 111762232 heartbeat IPC: 0.308802 cumulative IPC: 0.344662 (Simulation time: 0 hr 25 min 27 sec) 
select_counter is 747
Heartbeat CPU 0 instructions: 48000000 cycles: 114503939 heartbeat IPC: 0.364736 cumulative IPC: 0.345162 (Simulation time: 0 hr 26 min 5 sec) 
select_counter is 702
Heartbeat CPU 0 instructions: 49000001 cycles: 116514516 heartbeat IPC: 0.49737 cumulative IPC: 0.347892 (Simulation time: 0 hr 26 min 32 sec) 
select_counter is 466
Heartbeat CPU 0 instructions: 50000000 cycles: 119760962 heartbeat IPC: 0.308029 cumulative IPC: 0.34677 (Simulation time: 0 hr 27 min 11 sec) 
select_counter is 1010
Heartbeat CPU 0 instructions: 51000003 cycles: 122109093 heartbeat IPC: 0.425872 cumulative IPC: 0.348348 (Simulation time: 0 hr 27 min 43 sec) 
select_counter is 804
Heartbeat CPU 0 instructions: 52000000 cycles: 123374422 heartbeat IPC: 0.790306 cumulative IPC: 0.353049 (Simulation time: 0 hr 28 min 8 sec) 
select_counter is 730
Heartbeat CPU 0 instructions: 53000003 cycles: 126188452 heartbeat IPC: 0.355363 cumulative IPC: 0.353102 (Simulation time: 0 hr 28 min 43 sec) 
select_counter is 652
Heartbeat CPU 0 instructions: 54000001 cycles: 129660347 heartbeat IPC: 0.288027 cumulative IPC: 0.351298 (Simulation time: 0 hr 29 min 27 sec) 
select_counter is 489
Heartbeat CPU 0 instructions: 55000001 cycles: 132920283 heartbeat IPC: 0.306754 cumulative IPC: 0.350168 (Simulation time: 0 hr 30 min 12 sec) 
select_counter is 419
Heartbeat CPU 0 instructions: 56000000 cycles: 134736213 heartbeat IPC: 0.550681 cumulative IPC: 0.352962 (Simulation time: 0 hr 30 min 46 sec) 
select_counter is 138
Heartbeat CPU 0 instructions: 57000000 cycles: 138165892 heartbeat IPC: 0.291572 cumulative IPC: 0.351388 (Simulation time: 0 hr 31 min 29 sec) 
select_counter is 753
Heartbeat CPU 0 instructions: 58000000 cycles: 140417108 heartbeat IPC: 0.444204 cumulative IPC: 0.352924 (Simulation time: 0 hr 31 min 58 sec) 
select_counter is 570
Heartbeat CPU 0 instructions: 59000001 cycles: 141702406 heartbeat IPC: 0.77803 cumulative IPC: 0.356904 (Simulation time: 0 hr 32 min 20 sec) 
select_counter is 517
Heartbeat CPU 0 instructions: 60000000 cycles: 144562130 heartbeat IPC: 0.349684 cumulative IPC: 0.356757 (Simulation time: 0 hr 32 min 55 sec) 
select_counter is 388
Heartbeat CPU 0 instructions: 61000003 cycles: 147779368 heartbeat IPC: 0.310827 cumulative IPC: 0.355726 (Simulation time: 0 hr 33 min 36 sec) 
select_counter is 928
Heartbeat CPU 0 instructions: 62000002 cycles: 150917556 heartbeat IPC: 0.318655 cumulative IPC: 0.354932 (Simulation time: 0 hr 34 min 17 sec) 
select_counter is 871
Heartbeat CPU 0 instructions: 63000001 cycles: 152584535 heartbeat IPC: 0.599887 cumulative IPC: 0.357688 (Simulation time: 0 hr 34 min 50 sec) 
select_counter is 651
Heartbeat CPU 0 instructions: 64000000 cycles: 156497743 heartbeat IPC: 0.255545 cumulative IPC: 0.35506 (Simulation time: 0 hr 35 min 39 sec) 
select_counter is 427
Heartbeat CPU 0 instructions: 65000001 cycles: 158440114 heartbeat IPC: 0.514835 cumulative IPC: 0.357075 (Simulation time: 0 hr 36 min 6 sec) 
select_counter is 312
Heartbeat CPU 0 instructions: 66000000 cycles: 159716472 heartbeat IPC: 0.783478 cumulative IPC: 0.360579 (Simulation time: 0 hr 36 min 29 sec) 
select_counter is 295
Heartbeat CPU 0 instructions: 67000003 cycles: 162621301 heartbeat IPC: 0.344255 cumulative IPC: 0.360279 (Simulation time: 0 hr 37 min 5 sec) 
select_counter is 159
Heartbeat CPU 0 instructions: 68000000 cycles: 165958369 heartbeat IPC: 0.299663 cumulative IPC: 0.359027 (Simulation time: 0 hr 37 min 45 sec) 
select_counter is 555
Heartbeat CPU 0 instructions: 69000001 cycles: 168648014 heartbeat IPC: 0.371797 cumulative IPC: 0.359236 (Simulation time: 0 hr 38 min 25 sec) 
select_counter is 608
Heartbeat CPU 0 instructions: 70000000 cycles: 170527022 heartbeat IPC: 0.532195 cumulative IPC: 0.361193 (Simulation time: 0 hr 38 min 57 sec) 
select_counter is 421
Heartbeat CPU 0 instructions: 71000001 cycles: 173954577 heartbeat IPC: 0.291753 cumulative IPC: 0.359789 (Simulation time: 0 hr 39 min 40 sec) 
select_counter is 773
Heartbeat CPU 0 instructions: 72000000 cycles: 176185600 heartbeat IPC: 0.448224 cumulative IPC: 0.360937 (Simulation time: 0 hr 40 min 9 sec) 
select_counter is 446
Heartbeat CPU 0 instructions: 73000000 cycles: 177466121 heartbeat IPC: 0.780932 cumulative IPC: 0.364045 (Simulation time: 0 hr 40 min 31 sec) 
select_counter is 361
Heartbeat CPU 0 instructions: 74000001 cycles: 180278807 heartbeat IPC: 0.355532 cumulative IPC: 0.363909 (Simulation time: 0 hr 41 min 5 sec) 
select_counter is 250
Heartbeat CPU 0 instructions: 75000000 cycles: 183555603 heartbeat IPC: 0.305176 cumulative IPC: 0.362835 (Simulation time: 0 hr 41 min 42 sec) 
select_counter is 760
Heartbeat CPU 0 instructions: 76000000 cycles: 186706784 heartbeat IPC: 0.317341 cumulative IPC: 0.362048 (Simulation time: 0 hr 42 min 22 sec) 
select_counter is 596
Heartbeat CPU 0 instructions: 77000000 cycles: 188343580 heartbeat IPC: 0.61095 cumulative IPC: 0.364263 (Simulation time: 0 hr 42 min 51 sec) 
select_counter is 347
Heartbeat CPU 0 instructions: 78000000 cycles: 192189447 heartbeat IPC: 0.260019 cumulative IPC: 0.362128 (Simulation time: 0 hr 43 min 32 sec) 
select_counter is 621
Heartbeat CPU 0 instructions: 79000002 cycles: 193987564 heartbeat IPC: 0.556138 cumulative IPC: 0.363968 (Simulation time: 0 hr 43 min 55 sec) 
select_counter is 486
Heartbeat CPU 0 instructions: 80000000 cycles: 195269614 heartbeat IPC: 0.779999 cumulative IPC: 0.366763 (Simulation time: 0 hr 44 min 17 sec) 
select_counter is 462
Heartbeat CPU 0 instructions: 81000000 cycles: 198156030 heartbeat IPC: 0.34645 cumulative IPC: 0.36646 (Simulation time: 0 hr 44 min 47 sec) 
select_counter is 369
Heartbeat CPU 0 instructions: 82000000 cycles: 201412531 heartbeat IPC: 0.307078 cumulative IPC: 0.365479 (Simulation time: 0 hr 45 min 20 sec) 
select_counter is 766
Heartbeat CPU 0 instructions: 83000000 cycles: 204636617 heartbeat IPC: 0.310165 cumulative IPC: 0.364588 (Simulation time: 0 hr 45 min 52 sec) 
select_counter is 787
Heartbeat CPU 0 instructions: 84000000 cycles: 206389504 heartbeat IPC: 0.570487 cumulative IPC: 0.366375 (Simulation time: 0 hr 46 min 18 sec) 
select_counter is 509
Heartbeat CPU 0 instructions: 85000000 cycles: 210283155 heartbeat IPC: 0.256828 cumulative IPC: 0.364303 (Simulation time: 0 hr 46 min 46 sec) 
select_counter is 970
Heartbeat CPU 0 instructions: 86000002 cycles: 211689051 heartbeat IPC: 0.711292 cumulative IPC: 0.366657 (Simulation time: 0 hr 47 min 0 sec) 
select_counter is 882
Heartbeat CPU 0 instructions: 87000002 cycles: 212962868 heartbeat IPC: 0.785042 cumulative IPC: 0.369212 (Simulation time: 0 hr 47 min 17 sec) 
select_counter is 838
Heartbeat CPU 0 instructions: 88000000 cycles: 215862691 heartbeat IPC: 0.344848 cumulative IPC: 0.368878 (Simulation time: 0 hr 47 min 41 sec) 
select_counter is 626
Heartbeat CPU 0 instructions: 89000003 cycles: 219619667 heartbeat IPC: 0.266172 cumulative IPC: 0.367085 (Simulation time: 0 hr 48 min 11 sec) 
select_counter is 162
Heartbeat CPU 0 instructions: 90000001 cycles: 222735279 heartbeat IPC: 0.320964 cumulative IPC: 0.366427 (Simulation time: 0 hr 48 min 33 sec) 
select_counter is 98
Heartbeat CPU 0 instructions: 91000002 cycles: 224589480 heartbeat IPC: 0.539316 cumulative IPC: 0.367883 (Simulation time: 0 hr 48 min 54 sec) 
select_counter is 740
Heartbeat CPU 0 instructions: 92000000 cycles: 228472473 heartbeat IPC: 0.257533 cumulative IPC: 0.36597 (Simulation time: 0 hr 49 min 18 sec) 
select_counter is 218
Heartbeat CPU 0 instructions: 93000000 cycles: 229755094 heartbeat IPC: 0.779654 cumulative IPC: 0.368325 (Simulation time: 0 hr 49 min 31 sec) 
select_counter is 89
Heartbeat CPU 0 instructions: 94000000 cycles: 231122647 heartbeat IPC: 0.731233 cumulative IPC: 0.370514 (Simulation time: 0 hr 49 min 43 sec) 
select_counter is 1020
Heartbeat CPU 0 instructions: 95000002 cycles: 234119165 heartbeat IPC: 0.333721 cumulative IPC: 0.370034 (Simulation time: 0 hr 50 min 3 sec) 
select_counter is 998
Heartbeat CPU 0 instructions: 96000000 cycles: 237312118 heartbeat IPC: 0.313189 cumulative IPC: 0.369255 (Simulation time: 0 hr 50 min 23 sec) 
select_counter is 763
Heartbeat CPU 0 instructions: 97000003 cycles: 239951717 heartbeat IPC: 0.378847 cumulative IPC: 0.369362 (Simulation time: 0 hr 50 min 39 sec) 
select_counter is 565
Heartbeat CPU 0 instructions: 98000003 cycles: 242282238 heartbeat IPC: 0.429089 cumulative IPC: 0.369948 (Simulation time: 0 hr 50 min 55 sec) 
select_counter is 237
Heartbeat CPU 0 instructions: 99000000 cycles: 245576600 heartbeat IPC: 0.303548 cumulative IPC: 0.36904 (Simulation time: 0 hr 51 min 11 sec) 
select_counter is 511
Heartbeat CPU 0 instructions: 100000000 cycles: 246861009 heartbeat IPC: 0.778568 cumulative IPC: 0.37121 (Simulation time: 0 hr 51 min 21 sec) 
select_counter is 365
Heartbeat CPU 0 instructions: 101000003 cycles: 248782716 heartbeat IPC: 0.520372 cumulative IPC: 0.372383 (Simulation time: 0 hr 51 min 32 sec) 
select_counter is 248
Heartbeat CPU 0 instructions: 102000002 cycles: 251967362 heartbeat IPC: 0.314006 cumulative IPC: 0.371632 (Simulation time: 0 hr 51 min 46 sec) 
select_counter is 77
Heartbeat CPU 0 instructions: 103000000 cycles: 254191398 heartbeat IPC: 0.449632 cumulative IPC: 0.372327 (Simulation time: 0 hr 51 min 59 sec) 
select_counter is 972
Heartbeat CPU 0 instructions: 104000000 cycles: 263075402 heartbeat IPC: 0.112562 cumulative IPC: 0.363405 (Simulation time: 0 hr 52 min 16 sec) 
select_counter is 1009
Heartbeat CPU 0 instructions: 105000000 cycles: 265197470 heartbeat IPC: 0.471238 cumulative IPC: 0.364282 (Simulation time: 0 hr 52 min 30 sec) 
select_counter is 716
Heartbeat CPU 0 instructions: 106000002 cycles: 269220199 heartbeat IPC: 0.248588 cumulative IPC: 0.362525 (Simulation time: 0 hr 52 min 43 sec) 
select_counter is 630
Heartbeat CPU 0 instructions: 107000003 cycles: 273654506 heartbeat IPC: 0.225515 cumulative IPC: 0.360268 (Simulation time: 0 hr 52 min 55 sec) 
select_counter is 378
Heartbeat CPU 0 instructions: 108000000 cycles: 277108585 heartbeat IPC: 0.289512 cumulative IPC: 0.359372 (Simulation time: 0 hr 53 min 5 sec) 
select_counter is 142
Heartbeat CPU 0 instructions: 109000000 cycles: 280437400 heartbeat IPC: 0.300407 cumulative IPC: 0.358661 (Simulation time: 0 hr 53 min 16 sec) 
select_counter is 1020
Heartbeat CPU 0 instructions: 110000003 cycles: 284175106 heartbeat IPC: 0.267545 cumulative IPC: 0.357444 (Simulation time: 0 hr 53 min 25 sec) 
select_counter is 892
Finished CPU 0 instructions: 100000003 cycles: 279764448 cummulative IPC: 0.357444 (Simulation time: 0 hr 53 min 25 sec) 

ChampSim completed all CPUs

Region of Interest Statistics

CPU 0 cummulative IPC: 0.357444 instructions: 100000003 cycles: 279764448
LLC TOTAL     ACCESS:    8732450  HIT:    4230606  MISS:    4501844
LLC LOAD      ACCESS:    2232761  HIT:     963998  MISS:    1268763
LLC RFO       ACCESS:     871508  HIT:     346307  MISS:     525201
LLC PREFETCH  ACCESS:    3453267  HIT:    1346119  MISS:    2107148
LLC WRITEBACK ACCESS:    2174914  HIT:    1574182  MISS:     600732
Ship samples: size is 64
20, 59, 67, 100, 129, 178, 195, 220, 268, 308, 318, 343, 378, 420, 443, 477, 524, 565, 567, 593, 638, 685, 695, 716, 758, 814, 830, 853, 897, 924, 946, 977, 1009, 1065, 1071, 1102, 1153, 1183, 1208, 1235, 1263, 1318, 1333, 1364, 1398, 1446, 1449, 1472, 1528, 1570, 1583, 1600, 1645, 1687, 1709, 1724, 1768, 1822, 1842, 1856, 1895, 1938, 1957, 1976, 
Ship duel samples: size is 96
20, 22, 59, 67, 100, 107, 129, 164, 178, 195, 220, 233, 268, 277, 308, 318, 343, 375, 378, 400, 420, 443, 477, 484, 524, 535, 565, 567, 593, 623, 638, 655, 685, 695, 716, 744, 758, 788, 814, 830, 853, 870, 897, 914, 924, 946, 977, 988, 1009, 1040, 1065, 1071, 1102, 1117, 1153, 1165, 1183, 1208, 1235, 1248, 1263, 1300, 1318, 1333, 1364, 1369, 1398, 1417, 1446, 1449, 1472, 1496, 1528, 1539, 1570, 1583, 1600, 1632, 1645, 1674, 1687, 1709, 1724, 1752, 1768, 1797, 1822, 1842, 1856, 1874, 1895, 1911, 1938, 1957, 1976, 2013, 
Lime duel samples: size is 96
9, 25, 51, 78, 88, 111, 141, 155, 183, 204, 224, 236, 266, 283, 297, 317, 344, 376, 392, 405, 432, 454, 471, 493, 521, 531, 546, 579, 594, 609, 641, 667, 674, 693, 722, 742, 760, 777, 811, 839, 855, 866, 884, 909, 939, 951, 972, 989, 1010, 1029, 1057, 1083, 1103, 1129, 1154, 1160, 1196, 1216, 1234, 1244, 1279, 1287, 1321, 1323, 1348, 1371, 1391, 1416, 1434, 1466, 1478, 1511, 1513, 1541, 1559, 1591, 1610, 1627, 1655, 1673, 1690, 1704, 1727, 1762, 1781, 1788, 1810, 1841, 1849, 1887, 1907, 1929, 1935, 1969, 1992, 2003, 
Lime samples: size is 15
9, 141, 266, 392, 521, 641, 760, 884, 1010, 1154, 1279, 1391, 1513, 1655, 1781, 
Insertion Distribution: 
	LOAD 160289 0 0 0 0 0 42495 320103 
	RFO 65750 0 0 0 0 0 23669 106832 
	PREF 0 46081 0 0 0 0 127937 779362 
	WRITEBACK 0 0 0 0 0 0 0 225805 
Total Prefetch Downgrades: 57108
