
*** ChampSim Multicore Out-of-Order Simulator ***

Warmup Instructions: 10000000
Simulation Instructions: 100000000
Configuration: 2
Number of CPUs: 1
LLC sets: 2048
LLC ways: 16
Off-chip DRAM Channels: 1 Width: 64-bit Data Rate: 1600 MT/s

CPU 0 runs /datasets/cs240c-wi22-a00-public/data/Assignment2-gz/perlbench_53B.trace.gz
CPU 0 L1D next line prefetcher
CPU 0 L2C IP-based stride prefetcher
Heartbeat CPU 0 instructions: 1000000 cycles: 615807 heartbeat IPC: 1.62389 cumulative IPC: 1.62389 (Simulation time: 0 hr 0 min 31 sec) 
select_counter is 471
Heartbeat CPU 0 instructions: 2000001 cycles: 1252984 heartbeat IPC: 1.56942 cumulative IPC: 1.59619 (Simulation time: 0 hr 0 min 58 sec) 
select_counter is 442
Heartbeat CPU 0 instructions: 3000002 cycles: 1908475 heartbeat IPC: 1.52558 cumulative IPC: 1.57194 (Simulation time: 0 hr 1 min 30 sec) 
select_counter is 409
Heartbeat CPU 0 instructions: 4000000 cycles: 2523992 heartbeat IPC: 1.62465 cumulative IPC: 1.58479 (Simulation time: 0 hr 2 min 2 sec) 
select_counter is 246
Heartbeat CPU 0 instructions: 5000001 cycles: 3152005 heartbeat IPC: 1.59233 cumulative IPC: 1.58629 (Simulation time: 0 hr 2 min 31 sec) 
select_counter is 171
Heartbeat CPU 0 instructions: 6000001 cycles: 3767520 heartbeat IPC: 1.62466 cumulative IPC: 1.59256 (Simulation time: 0 hr 3 min 1 sec) 
select_counter is 63
Heartbeat CPU 0 instructions: 7000002 cycles: 4390329 heartbeat IPC: 1.60563 cumulative IPC: 1.59441 (Simulation time: 0 hr 3 min 33 sec) 
select_counter is 912
Heartbeat CPU 0 instructions: 8000000 cycles: 5000720 heartbeat IPC: 1.63829 cumulative IPC: 1.59977 (Simulation time: 0 hr 4 min 2 sec) 
select_counter is 865
Heartbeat CPU 0 instructions: 9000000 cycles: 5652461 heartbeat IPC: 1.53435 cumulative IPC: 1.59223 (Simulation time: 0 hr 4 min 35 sec) 
select_counter is 792
Heartbeat CPU 0 instructions: 10000001 cycles: 6287657 heartbeat IPC: 1.57432 cumulative IPC: 1.59042 (Simulation time: 0 hr 5 min 2 sec) 
select_counter is 662

Warmup complete CPU 0 instructions: 10000001 cycles: 6287657 (Simulation time: 0 hr 5 min 2 sec) 

Heartbeat CPU 0 instructions: 11000000 cycles: 9165730 heartbeat IPC: 0.347454 cumulative IPC: 0.347454 (Simulation time: 0 hr 5 min 34 sec) 
select_counter is 453
Heartbeat CPU 0 instructions: 12000000 cycles: 12027723 heartbeat IPC: 0.349407 cumulative IPC: 0.348428 (Simulation time: 0 hr 6 min 11 sec) 
select_counter is 325
Heartbeat CPU 0 instructions: 13000000 cycles: 14378837 heartbeat IPC: 0.42533 cumulative IPC: 0.370774 (Simulation time: 0 hr 6 min 46 sec) 
select_counter is 277
Heartbeat CPU 0 instructions: 14000000 cycles: 16882151 heartbeat IPC: 0.39947 cumulative IPC: 0.377555 (Simulation time: 0 hr 7 min 20 sec) 
select_counter is 161
Heartbeat CPU 0 instructions: 15000001 cycles: 19644243 heartbeat IPC: 0.362045 cumulative IPC: 0.374347 (Simulation time: 0 hr 7 min 53 sec) 
select_counter is 36
Heartbeat CPU 0 instructions: 16000000 cycles: 22312040 heartbeat IPC: 0.374841 cumulative IPC: 0.374429 (Simulation time: 0 hr 8 min 26 sec) 
select_counter is 985
Heartbeat CPU 0 instructions: 17000001 cycles: 24985447 heartbeat IPC: 0.374055 cumulative IPC: 0.374376 (Simulation time: 0 hr 8 min 59 sec) 
select_counter is 909
Heartbeat CPU 0 instructions: 18000002 cycles: 27840916 heartbeat IPC: 0.350206 cumulative IPC: 0.371174 (Simulation time: 0 hr 9 min 33 sec) 
select_counter is 829
Heartbeat CPU 0 instructions: 19000000 cycles: 30667052 heartbeat IPC: 0.353839 cumulative IPC: 0.369164 (Simulation time: 0 hr 10 min 6 sec) 
select_counter is 633
Heartbeat CPU 0 instructions: 20000000 cycles: 33521619 heartbeat IPC: 0.350316 cumulative IPC: 0.367189 (Simulation time: 0 hr 10 min 44 sec) 
select_counter is 559
Heartbeat CPU 0 instructions: 21000000 cycles: 35881177 heartbeat IPC: 0.423808 cumulative IPC: 0.371703 (Simulation time: 0 hr 11 min 19 sec) 
select_counter is 521
Heartbeat CPU 0 instructions: 22000000 cycles: 37958822 heartbeat IPC: 0.481314 cumulative IPC: 0.378894 (Simulation time: 0 hr 11 min 54 sec) 
select_counter is 497
Heartbeat CPU 0 instructions: 23000001 cycles: 39891514 heartbeat IPC: 0.517414 cumulative IPC: 0.38686 (Simulation time: 0 hr 12 min 27 sec) 
select_counter is 461
Heartbeat CPU 0 instructions: 24000000 cycles: 42287160 heartbeat IPC: 0.417424 cumulative IPC: 0.388894 (Simulation time: 0 hr 13 min 3 sec) 
select_counter is 433
Heartbeat CPU 0 instructions: 25000000 cycles: 44298703 heartbeat IPC: 0.497131 cumulative IPC: 0.394622 (Simulation time: 0 hr 13 min 34 sec) 
select_counter is 432
Heartbeat CPU 0 instructions: 26000001 cycles: 46283588 heartbeat IPC: 0.503808 cumulative IPC: 0.400041 (Simulation time: 0 hr 14 min 3 sec) 
select_counter is 433
Heartbeat CPU 0 instructions: 27000002 cycles: 48578022 heartbeat IPC: 0.435838 cumulative IPC: 0.401983 (Simulation time: 0 hr 14 min 37 sec) 
select_counter is 413
Heartbeat CPU 0 instructions: 28000000 cycles: 51142119 heartbeat IPC: 0.39 cumulative IPC: 0.401298 (Simulation time: 0 hr 15 min 15 sec) 
select_counter is 337
Heartbeat CPU 0 instructions: 29000000 cycles: 53462608 heartbeat IPC: 0.430944 cumulative IPC: 0.402756 (Simulation time: 0 hr 15 min 53 sec) 
select_counter is 291
Heartbeat CPU 0 instructions: 30000000 cycles: 55504655 heartbeat IPC: 0.489705 cumulative IPC: 0.406364 (Simulation time: 0 hr 16 min 24 sec) 
select_counter is 280
Heartbeat CPU 0 instructions: 31000001 cycles: 57491522 heartbeat IPC: 0.503305 cumulative IPC: 0.410125 (Simulation time: 0 hr 16 min 54 sec) 
select_counter is 280
Heartbeat CPU 0 instructions: 32000000 cycles: 59488751 heartbeat IPC: 0.500693 cumulative IPC: 0.413525 (Simulation time: 0 hr 17 min 23 sec) 
select_counter is 282
Heartbeat CPU 0 instructions: 33000003 cycles: 61946786 heartbeat IPC: 0.40683 cumulative IPC: 0.41323 (Simulation time: 0 hr 17 min 55 sec) 
select_counter is 190
Heartbeat CPU 0 instructions: 34000000 cycles: 64650144 heartbeat IPC: 0.369909 cumulative IPC: 0.411223 (Simulation time: 0 hr 18 min 28 sec) 
select_counter is 101
Heartbeat CPU 0 instructions: 35000000 cycles: 67200954 heartbeat IPC: 0.392032 cumulative IPC: 0.410419 (Simulation time: 0 hr 19 min 0 sec) 
select_counter is 1002
Heartbeat CPU 0 instructions: 36000000 cycles: 69991168 heartbeat IPC: 0.358395 cumulative IPC: 0.408141 (Simulation time: 0 hr 19 min 38 sec) 
select_counter is 965
Heartbeat CPU 0 instructions: 37000002 cycles: 72829704 heartbeat IPC: 0.352295 cumulative IPC: 0.405759 (Simulation time: 0 hr 20 min 16 sec) 
select_counter is 863
Heartbeat CPU 0 instructions: 38000000 cycles: 75710724 heartbeat IPC: 0.347099 cumulative IPC: 0.403324 (Simulation time: 0 hr 20 min 51 sec) 
select_counter is 698
Heartbeat CPU 0 instructions: 39000001 cycles: 78376969 heartbeat IPC: 0.37506 cumulative IPC: 0.402279 (Simulation time: 0 hr 21 min 27 sec) 
select_counter is 622
Heartbeat CPU 0 instructions: 40000000 cycles: 80975222 heartbeat IPC: 0.384874 cumulative IPC: 0.401673 (Simulation time: 0 hr 22 min 3 sec) 
select_counter is 522
Heartbeat CPU 0 instructions: 41000002 cycles: 83853811 heartbeat IPC: 0.347393 cumulative IPC: 0.399659 (Simulation time: 0 hr 22 min 39 sec) 
select_counter is 391
Heartbeat CPU 0 instructions: 42000000 cycles: 86458509 heartbeat IPC: 0.383921 cumulative IPC: 0.399148 (Simulation time: 0 hr 23 min 14 sec) 
select_counter is 327
Heartbeat CPU 0 instructions: 43000002 cycles: 89297609 heartbeat IPC: 0.352225 cumulative IPC: 0.397543 (Simulation time: 0 hr 23 min 48 sec) 
select_counter is 194
Heartbeat CPU 0 instructions: 44000000 cycles: 91963542 heartbeat IPC: 0.375102 cumulative IPC: 0.396844 (Simulation time: 0 hr 24 min 29 sec) 
select_counter is 116
Heartbeat CPU 0 instructions: 45000001 cycles: 93423255 heartbeat IPC: 0.685067 cumulative IPC: 0.401673 (Simulation time: 0 hr 24 min 56 sec) 
select_counter is 88
Heartbeat CPU 0 instructions: 46000000 cycles: 95447616 heartbeat IPC: 0.493983 cumulative IPC: 0.403769 (Simulation time: 0 hr 25 min 27 sec) 
select_counter is 82
Heartbeat CPU 0 instructions: 47000002 cycles: 97363019 heartbeat IPC: 0.522084 cumulative IPC: 0.406257 (Simulation time: 0 hr 25 min 57 sec) 
select_counter is 80
Heartbeat CPU 0 instructions: 48000000 cycles: 99283234 heartbeat IPC: 0.520774 cumulative IPC: 0.408622 (Simulation time: 0 hr 26 min 28 sec) 
select_counter is 79
Heartbeat CPU 0 instructions: 49000000 cycles: 101630622 heartbeat IPC: 0.426005 cumulative IPC: 0.40905 (Simulation time: 0 hr 27 min 3 sec) 
select_counter is 25
Heartbeat CPU 0 instructions: 50000002 cycles: 103493854 heartbeat IPC: 0.536703 cumulative IPC: 0.411496 (Simulation time: 0 hr 27 min 38 sec) 
select_counter is 1013
Heartbeat CPU 0 instructions: 51000000 cycles: 105424512 heartbeat IPC: 0.517957 cumulative IPC: 0.41357 (Simulation time: 0 hr 28 min 13 sec) 
select_counter is 1012
Heartbeat CPU 0 instructions: 52000000 cycles: 107339517 heartbeat IPC: 0.522192 cumulative IPC: 0.415628 (Simulation time: 0 hr 28 min 45 sec) 
select_counter is 1012
Heartbeat CPU 0 instructions: 53000002 cycles: 109290288 heartbeat IPC: 0.512619 cumulative IPC: 0.417465 (Simulation time: 0 hr 29 min 19 sec) 
select_counter is 1007
Heartbeat CPU 0 instructions: 54000000 cycles: 112185210 heartbeat IPC: 0.345432 cumulative IPC: 0.415496 (Simulation time: 0 hr 29 min 58 sec) 
select_counter is 863
Heartbeat CPU 0 instructions: 55000000 cycles: 114677542 heartbeat IPC: 0.401231 cumulative IPC: 0.415168 (Simulation time: 0 hr 30 min 39 sec) 
select_counter is 782
Heartbeat CPU 0 instructions: 56000000 cycles: 117478536 heartbeat IPC: 0.357016 cumulative IPC: 0.413703 (Simulation time: 0 hr 31 min 20 sec) 
select_counter is 704
Heartbeat CPU 0 instructions: 57000001 cycles: 120466808 heartbeat IPC: 0.334642 cumulative IPC: 0.411634 (Simulation time: 0 hr 32 min 0 sec) 
select_counter is 565
Heartbeat CPU 0 instructions: 58000003 cycles: 123435140 heartbeat IPC: 0.33689 cumulative IPC: 0.40974 (Simulation time: 0 hr 32 min 45 sec) 
select_counter is 535
Heartbeat CPU 0 instructions: 59000002 cycles: 126255837 heartbeat IPC: 0.354522 cumulative IPC: 0.408442 (Simulation time: 0 hr 33 min 23 sec) 
select_counter is 530
Heartbeat CPU 0 instructions: 60000000 cycles: 129030461 heartbeat IPC: 0.360408 cumulative IPC: 0.407356 (Simulation time: 0 hr 34 min 0 sec) 
select_counter is 512
Heartbeat CPU 0 instructions: 61000002 cycles: 131674674 heartbeat IPC: 0.378185 cumulative IPC: 0.406741 (Simulation time: 0 hr 34 min 38 sec) 
select_counter is 473
Heartbeat CPU 0 instructions: 62000002 cycles: 134368297 heartbeat IPC: 0.371247 cumulative IPC: 0.405994 (Simulation time: 0 hr 35 min 17 sec) 
select_counter is 425
Heartbeat CPU 0 instructions: 63000001 cycles: 137036505 heartbeat IPC: 0.374783 cumulative IPC: 0.405357 (Simulation time: 0 hr 35 min 54 sec) 
select_counter is 393
Heartbeat CPU 0 instructions: 64000000 cycles: 139693763 heartbeat IPC: 0.376327 cumulative IPC: 0.404779 (Simulation time: 0 hr 36 min 33 sec) 
select_counter is 362
Heartbeat CPU 0 instructions: 65000003 cycles: 142331730 heartbeat IPC: 0.379081 cumulative IPC: 0.404281 (Simulation time: 0 hr 37 min 14 sec) 
select_counter is 331
Heartbeat CPU 0 instructions: 66000001 cycles: 144961159 heartbeat IPC: 0.38031 cumulative IPC: 0.403826 (Simulation time: 0 hr 37 min 50 sec) 
select_counter is 297
Heartbeat CPU 0 instructions: 67000001 cycles: 147574682 heartbeat IPC: 0.382625 cumulative IPC: 0.403434 (Simulation time: 0 hr 38 min 28 sec) 
select_counter is 296
Heartbeat CPU 0 instructions: 68000000 cycles: 150246170 heartbeat IPC: 0.374323 cumulative IPC: 0.402894 (Simulation time: 0 hr 39 min 5 sec) 
select_counter is 250
Heartbeat CPU 0 instructions: 69000001 cycles: 152887582 heartbeat IPC: 0.378586 cumulative IPC: 0.402456 (Simulation time: 0 hr 39 min 43 sec) 
select_counter is 208
Heartbeat CPU 0 instructions: 70000001 cycles: 155501488 heartbeat IPC: 0.382569 cumulative IPC: 0.402108 (Simulation time: 0 hr 40 min 15 sec) 
select_counter is 157
Heartbeat CPU 0 instructions: 71000001 cycles: 158221461 heartbeat IPC: 0.367651 cumulative IPC: 0.401491 (Simulation time: 0 hr 40 min 52 sec) 
select_counter is 147
Heartbeat CPU 0 instructions: 72000000 cycles: 160824843 heartbeat IPC: 0.384115 cumulative IPC: 0.401198 (Simulation time: 0 hr 41 min 30 sec) 
select_counter is 124
Heartbeat CPU 0 instructions: 73000002 cycles: 163484940 heartbeat IPC: 0.375927 cumulative IPC: 0.40077 (Simulation time: 0 hr 42 min 8 sec) 
select_counter is 89
Heartbeat CPU 0 instructions: 74000001 cycles: 166168658 heartbeat IPC: 0.372617 cumulative IPC: 0.400298 (Simulation time: 0 hr 42 min 42 sec) 
select_counter is 51
Heartbeat CPU 0 instructions: 75000001 cycles: 168829492 heartbeat IPC: 0.375822 cumulative IPC: 0.399897 (Simulation time: 0 hr 43 min 16 sec) 
select_counter is 1007
Heartbeat CPU 0 instructions: 76000000 cycles: 171472238 heartbeat IPC: 0.378394 cumulative IPC: 0.399553 (Simulation time: 0 hr 43 min 49 sec) 
select_counter is 947
Heartbeat CPU 0 instructions: 77000002 cycles: 174145759 heartbeat IPC: 0.374039 cumulative IPC: 0.399147 (Simulation time: 0 hr 44 min 20 sec) 
select_counter is 907
Heartbeat CPU 0 instructions: 78000000 cycles: 176800084 heartbeat IPC: 0.376743 cumulative IPC: 0.398798 (Simulation time: 0 hr 44 min 50 sec) 
select_counter is 880
Heartbeat CPU 0 instructions: 79000002 cycles: 179461533 heartbeat IPC: 0.375736 cumulative IPC: 0.398443 (Simulation time: 0 hr 45 min 20 sec) 
select_counter is 853
Heartbeat CPU 0 instructions: 80000000 cycles: 182097031 heartbeat IPC: 0.379434 cumulative IPC: 0.398159 (Simulation time: 0 hr 45 min 48 sec) 
select_counter is 820
Heartbeat CPU 0 instructions: 81000000 cycles: 184712062 heartbeat IPC: 0.382405 cumulative IPC: 0.397928 (Simulation time: 0 hr 46 min 18 sec) 
select_counter is 806
Heartbeat CPU 0 instructions: 82000002 cycles: 187390421 heartbeat IPC: 0.373364 cumulative IPC: 0.397564 (Simulation time: 0 hr 46 min 44 sec) 
select_counter is 762
Heartbeat CPU 0 instructions: 83000000 cycles: 190037852 heartbeat IPC: 0.377724 cumulative IPC: 0.397278 (Simulation time: 0 hr 47 min 8 sec) 
select_counter is 720
Heartbeat CPU 0 instructions: 84000000 cycles: 192695892 heartbeat IPC: 0.376217 cumulative IPC: 0.396978 (Simulation time: 0 hr 47 min 34 sec) 
select_counter is 647
Heartbeat CPU 0 instructions: 85000001 cycles: 195374315 heartbeat IPC: 0.373354 cumulative IPC: 0.396644 (Simulation time: 0 hr 47 min 59 sec) 
select_counter is 634
Heartbeat CPU 0 instructions: 86000000 cycles: 197870130 heartbeat IPC: 0.40067 cumulative IPC: 0.396696 (Simulation time: 0 hr 48 min 23 sec) 
select_counter is 626
Heartbeat CPU 0 instructions: 87000000 cycles: 199998634 heartbeat IPC: 0.469814 cumulative IPC: 0.397499 (Simulation time: 0 hr 48 min 41 sec) 
select_counter is 625
Heartbeat CPU 0 instructions: 88000000 cycles: 201996255 heartbeat IPC: 0.500595 cumulative IPC: 0.398552 (Simulation time: 0 hr 48 min 59 sec) 
select_counter is 621
Heartbeat CPU 0 instructions: 89000001 cycles: 204072193 heartbeat IPC: 0.48171 cumulative IPC: 0.399425 (Simulation time: 0 hr 49 min 18 sec) 
select_counter is 618
Heartbeat CPU 0 instructions: 90000000 cycles: 206729164 heartbeat IPC: 0.376368 cumulative IPC: 0.399119 (Simulation time: 0 hr 49 min 42 sec) 
select_counter is 581
Heartbeat CPU 0 instructions: 91000001 cycles: 209508323 heartbeat IPC: 0.359821 cumulative IPC: 0.398582 (Simulation time: 0 hr 50 min 5 sec) 
select_counter is 537
Heartbeat CPU 0 instructions: 92000000 cycles: 212196563 heartbeat IPC: 0.37199 cumulative IPC: 0.398234 (Simulation time: 0 hr 50 min 25 sec) 
select_counter is 472
Heartbeat CPU 0 instructions: 93000000 cycles: 214849597 heartbeat IPC: 0.376927 cumulative IPC: 0.397963 (Simulation time: 0 hr 50 min 42 sec) 
select_counter is 395
Heartbeat CPU 0 instructions: 94000002 cycles: 217498713 heartbeat IPC: 0.377485 cumulative IPC: 0.397706 (Simulation time: 0 hr 50 min 58 sec) 
select_counter is 341
Heartbeat CPU 0 instructions: 95000000 cycles: 220120563 heartbeat IPC: 0.381409 cumulative IPC: 0.397507 (Simulation time: 0 hr 51 min 14 sec) 
select_counter is 277
Heartbeat CPU 0 instructions: 96000000 cycles: 222786294 heartbeat IPC: 0.375132 cumulative IPC: 0.397231 (Simulation time: 0 hr 51 min 28 sec) 
select_counter is 221
Heartbeat CPU 0 instructions: 97000000 cycles: 225427768 heartbeat IPC: 0.378577 cumulative IPC: 0.397006 (Simulation time: 0 hr 51 min 41 sec) 
select_counter is 180
Heartbeat CPU 0 instructions: 98000000 cycles: 228050998 heartbeat IPC: 0.381209 cumulative IPC: 0.396819 (Simulation time: 0 hr 51 min 54 sec) 
select_counter is 148
Heartbeat CPU 0 instructions: 99000002 cycles: 230660520 heartbeat IPC: 0.383213 cumulative IPC: 0.396661 (Simulation time: 0 hr 52 min 6 sec) 
select_counter is 106
Heartbeat CPU 0 instructions: 100000000 cycles: 233287135 heartbeat IPC: 0.380717 cumulative IPC: 0.396477 (Simulation time: 0 hr 52 min 18 sec) 
select_counter is 67
Heartbeat CPU 0 instructions: 101000002 cycles: 235942710 heartbeat IPC: 0.376567 cumulative IPC: 0.396246 (Simulation time: 0 hr 52 min 29 sec) 
select_counter is 18
Heartbeat CPU 0 instructions: 102000000 cycles: 238575082 heartbeat IPC: 0.379885 cumulative IPC: 0.396061 (Simulation time: 0 hr 52 min 39 sec) 
select_counter is 956
Heartbeat CPU 0 instructions: 103000000 cycles: 241202317 heartbeat IPC: 0.380628 cumulative IPC: 0.395888 (Simulation time: 0 hr 52 min 49 sec) 
select_counter is 922
Heartbeat CPU 0 instructions: 104000000 cycles: 243865767 heartbeat IPC: 0.375453 cumulative IPC: 0.395659 (Simulation time: 0 hr 53 min 1 sec) 
select_counter is 910
Heartbeat CPU 0 instructions: 105000003 cycles: 246046141 heartbeat IPC: 0.458638 cumulative IPC: 0.396232 (Simulation time: 0 hr 53 min 11 sec) 
select_counter is 904
Heartbeat CPU 0 instructions: 106000000 cycles: 248023306 heartbeat IPC: 0.505773 cumulative IPC: 0.397128 (Simulation time: 0 hr 53 min 19 sec) 
select_counter is 902
Heartbeat CPU 0 instructions: 107000003 cycles: 249998298 heartbeat IPC: 0.506333 cumulative IPC: 0.398013 (Simulation time: 0 hr 53 min 27 sec) 
select_counter is 901
Heartbeat CPU 0 instructions: 108000000 cycles: 252708613 heartbeat IPC: 0.36896 cumulative IPC: 0.397693 (Simulation time: 0 hr 53 min 33 sec) 
select_counter is 837
Heartbeat CPU 0 instructions: 109000001 cycles: 255410464 heartbeat IPC: 0.370117 cumulative IPC: 0.397394 (Simulation time: 0 hr 53 min 38 sec) 
select_counter is 775
Heartbeat CPU 0 instructions: 110000000 cycles: 257916280 heartbeat IPC: 0.399071 cumulative IPC: 0.397411 (Simulation time: 0 hr 53 min 42 sec) 
select_counter is 726
Finished CPU 0 instructions: 100000000 cycles: 251628624 cummulative IPC: 0.397411 (Simulation time: 0 hr 53 min 42 sec) 

ChampSim completed all CPUs

Region of Interest Statistics

CPU 0 cummulative IPC: 0.397411 instructions: 100000000 cycles: 251628624
LLC TOTAL     ACCESS:     656704  HIT:     601080  MISS:      55624
LLC LOAD      ACCESS:     310898  HIT:     303140  MISS:       7758
LLC RFO       ACCESS:      30805  HIT:      26645  MISS:       4160
LLC PREFETCH  ACCESS:     212718  HIT:     171193  MISS:      41525
LLC WRITEBACK ACCESS:     102283  HIT:     100102  MISS:       2181
Ship samples: size is 64
17, 60, 78, 93, 136, 175, 192, 212, 258, 297, 333, 340, 378, 434, 442, 477, 523, 558, 587, 603, 645, 681, 702, 730, 769, 798, 834, 841, 882, 926, 949, 985, 1012, 1063, 1074, 1107, 1136, 1186, 1217, 1222, 1271, 1303, 1327, 1358, 1403, 1445, 1458, 1479, 1514, 1574, 1577, 1613, 1651, 1697, 1714, 1741, 1765, 1813, 1829, 1866, 1901, 1935, 1960, 1990, 
Ship duel samples: size is 96
17, 35, 60, 78, 93, 123, 136, 167, 175, 192, 212, 242, 258, 280, 297, 333, 340, 357, 378, 404, 434, 442, 477, 491, 523, 542, 558, 587, 603, 622, 645, 658, 681, 702, 730, 753, 769, 788, 798, 834, 841, 866, 882, 905, 926, 949, 985, 987, 1012, 1031, 1063, 1074, 1107, 1113, 1136, 1166, 1186, 1217, 1222, 1242, 1271, 1291, 1303, 1327, 1358, 1384, 1403, 1409, 1445, 1458, 1479, 1494, 1514, 1546, 1574, 1577, 1613, 1618, 1651, 1678, 1697, 1714, 1741, 1748, 1765, 1803, 1813, 1829, 1866, 1881, 1901, 1931, 1935, 1960, 1990, 2000, 
Lime duel samples: size is 96
1, 30, 45, 69, 86, 111, 139, 163, 179, 202, 210, 236, 255, 291, 298, 327, 345, 374, 379, 412, 431, 460, 468, 501, 510, 537, 552, 576, 597, 624, 639, 659, 673, 703, 728, 739, 773, 781, 818, 826, 858, 879, 892, 903, 937, 960, 978, 988, 1019, 1040, 1064, 1072, 1101, 1131, 1151, 1169, 1183, 1198, 1220, 1255, 1274, 1290, 1306, 1339, 1363, 1381, 1404, 1422, 1428, 1464, 1471, 1507, 1525, 1545, 1568, 1580, 1600, 1620, 1643, 1674, 1694, 1720, 1736, 1745, 1781, 1794, 1820, 1830, 1858, 1885, 1908, 1914, 1936, 1954, 1993, 1998, 
Lime samples: size is 15
1, 139, 255, 379, 510, 639, 773, 892, 1019, 1151, 1274, 1404, 1525, 1643, 1781, 
Insertion Distribution: 
	LOAD 2133 0 0 0 0 0 10734 131 
	RFO 313 0 0 0 0 0 3077 30 
	PREF 0 46 0 0 0 0 17644 6778 
	WRITEBACK 0 0 0 0 0 0 0 1012 
Total Prefetch Downgrades: 4050
