
*** ChampSim Multicore Out-of-Order Simulator ***

Warmup Instructions: 10000000
Simulation Instructions: 100000000
Configuration: 2
Number of CPUs: 1
LLC sets: 2048
LLC ways: 16
Off-chip DRAM Channels: 1 Width: 64-bit Data Rate: 1600 MT/s

CPU 0 runs /datasets/cs240c-wi22-a00-public/data/Assignment2-gz/gcc_39B.trace.gz
CPU 0 L1D next line prefetcher
CPU 0 L2C IP-based stride prefetcher
Heartbeat CPU 0 instructions: 1000000 cycles: 510415 heartbeat IPC: 1.95919 cumulative IPC: 1.95919 (Simulation time: 0 hr 0 min 28 sec) 
select_counter is 506
Heartbeat CPU 0 instructions: 2000002 cycles: 1020477 heartbeat IPC: 1.96055 cumulative IPC: 1.95987 (Simulation time: 0 hr 0 min 54 sec) 
select_counter is 510
Heartbeat CPU 0 instructions: 3000002 cycles: 1529254 heartbeat IPC: 1.9655 cumulative IPC: 1.96174 (Simulation time: 0 hr 1 min 24 sec) 
select_counter is 506
Heartbeat CPU 0 instructions: 4000000 cycles: 2038229 heartbeat IPC: 1.96473 cumulative IPC: 1.96249 (Simulation time: 0 hr 1 min 53 sec) 
select_counter is 508
Heartbeat CPU 0 instructions: 5000003 cycles: 2547014 heartbeat IPC: 1.96547 cumulative IPC: 1.96308 (Simulation time: 0 hr 2 min 21 sec) 
select_counter is 515
Heartbeat CPU 0 instructions: 6000000 cycles: 3057390 heartbeat IPC: 1.95933 cumulative IPC: 1.96246 (Simulation time: 0 hr 2 min 48 sec) 
select_counter is 512
Heartbeat CPU 0 instructions: 7000001 cycles: 3565359 heartbeat IPC: 1.96863 cumulative IPC: 1.96334 (Simulation time: 0 hr 3 min 16 sec) 
select_counter is 501
Heartbeat CPU 0 instructions: 8000000 cycles: 4078805 heartbeat IPC: 1.94762 cumulative IPC: 1.96136 (Simulation time: 0 hr 3 min 44 sec) 
select_counter is 508
Heartbeat CPU 0 instructions: 9000002 cycles: 4590941 heartbeat IPC: 1.95261 cumulative IPC: 1.96038 (Simulation time: 0 hr 4 min 13 sec) 
select_counter is 511
Heartbeat CPU 0 instructions: 10000000 cycles: 5101490 heartbeat IPC: 1.95867 cumulative IPC: 1.96021 (Simulation time: 0 hr 4 min 41 sec) 
select_counter is 511

Warmup complete CPU 0 instructions: 10000004 cycles: 5101491 (Simulation time: 0 hr 4 min 41 sec) 

Heartbeat CPU 0 instructions: 11000002 cycles: 6484209 heartbeat IPC: 0.723214 cumulative IPC: 0.723212 (Simulation time: 0 hr 5 min 16 sec) 
select_counter is 504
Heartbeat CPU 0 instructions: 12000000 cycles: 7868654 heartbeat IPC: 0.72231 cumulative IPC: 0.72276 (Simulation time: 0 hr 5 min 49 sec) 
select_counter is 501
Heartbeat CPU 0 instructions: 13000003 cycles: 9248125 heartbeat IPC: 0.724918 cumulative IPC: 0.723478 (Simulation time: 0 hr 6 min 23 sec) 
select_counter is 502
Heartbeat CPU 0 instructions: 14000003 cycles: 10633716 heartbeat IPC: 0.721714 cumulative IPC: 0.723036 (Simulation time: 0 hr 6 min 54 sec) 
select_counter is 508
Heartbeat CPU 0 instructions: 15000001 cycles: 12017358 heartbeat IPC: 0.722729 cumulative IPC: 0.722975 (Simulation time: 0 hr 7 min 27 sec) 
select_counter is 502
Heartbeat CPU 0 instructions: 16000000 cycles: 13401414 heartbeat IPC: 0.722513 cumulative IPC: 0.722898 (Simulation time: 0 hr 7 min 59 sec) 
select_counter is 492
Heartbeat CPU 0 instructions: 17000000 cycles: 14786807 heartbeat IPC: 0.721817 cumulative IPC: 0.722743 (Simulation time: 0 hr 8 min 32 sec) 
select_counter is 489
Heartbeat CPU 0 instructions: 18000000 cycles: 16172011 heartbeat IPC: 0.721915 cumulative IPC: 0.72264 (Simulation time: 0 hr 9 min 7 sec) 
select_counter is 482
Heartbeat CPU 0 instructions: 19000001 cycles: 17550721 heartbeat IPC: 0.725316 cumulative IPC: 0.722936 (Simulation time: 0 hr 9 min 40 sec) 
select_counter is 485
Heartbeat CPU 0 instructions: 20000000 cycles: 18929313 heartbeat IPC: 0.725377 cumulative IPC: 0.723179 (Simulation time: 0 hr 10 min 16 sec) 
select_counter is 489
Heartbeat CPU 0 instructions: 21000001 cycles: 20326393 heartbeat IPC: 0.715779 cumulative IPC: 0.7225 (Simulation time: 0 hr 10 min 49 sec) 
select_counter is 485
Heartbeat CPU 0 instructions: 22000003 cycles: 21715178 heartbeat IPC: 0.720055 cumulative IPC: 0.722296 (Simulation time: 0 hr 11 min 23 sec) 
select_counter is 488
Heartbeat CPU 0 instructions: 23000003 cycles: 23097070 heartbeat IPC: 0.723646 cumulative IPC: 0.7224 (Simulation time: 0 hr 11 min 56 sec) 
select_counter is 484
Heartbeat CPU 0 instructions: 24000000 cycles: 24477927 heartbeat IPC: 0.724186 cumulative IPC: 0.722527 (Simulation time: 0 hr 12 min 29 sec) 
select_counter is 485
Heartbeat CPU 0 instructions: 25000002 cycles: 25849001 heartbeat IPC: 0.729357 cumulative IPC: 0.722978 (Simulation time: 0 hr 13 min 0 sec) 
select_counter is 486
Heartbeat CPU 0 instructions: 26000001 cycles: 27224364 heartbeat IPC: 0.72708 cumulative IPC: 0.723233 (Simulation time: 0 hr 13 min 33 sec) 
select_counter is 483
Heartbeat CPU 0 instructions: 27000000 cycles: 28595233 heartbeat IPC: 0.729464 cumulative IPC: 0.723597 (Simulation time: 0 hr 14 min 5 sec) 
select_counter is 475
Heartbeat CPU 0 instructions: 28000000 cycles: 29967827 heartbeat IPC: 0.728548 cumulative IPC: 0.72387 (Simulation time: 0 hr 14 min 35 sec) 
select_counter is 479
Heartbeat CPU 0 instructions: 29000001 cycles: 31331151 heartbeat IPC: 0.733502 cumulative IPC: 0.724371 (Simulation time: 0 hr 15 min 6 sec) 
select_counter is 474
Heartbeat CPU 0 instructions: 30000003 cycles: 32703557 heartbeat IPC: 0.728649 cumulative IPC: 0.724583 (Simulation time: 0 hr 15 min 40 sec) 
select_counter is 470
Heartbeat CPU 0 instructions: 31000003 cycles: 34091771 heartbeat IPC: 0.72035 cumulative IPC: 0.724381 (Simulation time: 0 hr 16 min 16 sec) 
select_counter is 468
Heartbeat CPU 0 instructions: 32000000 cycles: 35466947 heartbeat IPC: 0.727177 cumulative IPC: 0.724507 (Simulation time: 0 hr 16 min 52 sec) 
select_counter is 471
Heartbeat CPU 0 instructions: 33000002 cycles: 36850835 heartbeat IPC: 0.722603 cumulative IPC: 0.724424 (Simulation time: 0 hr 17 min 26 sec) 
select_counter is 464
Heartbeat CPU 0 instructions: 34000001 cycles: 38231902 heartbeat IPC: 0.724077 cumulative IPC: 0.72441 (Simulation time: 0 hr 17 min 58 sec) 
select_counter is 467
Heartbeat CPU 0 instructions: 35000001 cycles: 39612439 heartbeat IPC: 0.724356 cumulative IPC: 0.724408 (Simulation time: 0 hr 18 min 33 sec) 
select_counter is 467
Heartbeat CPU 0 instructions: 36000000 cycles: 40992074 heartbeat IPC: 0.724829 cumulative IPC: 0.724424 (Simulation time: 0 hr 19 min 6 sec) 
select_counter is 465
Heartbeat CPU 0 instructions: 37000000 cycles: 42374239 heartbeat IPC: 0.723503 cumulative IPC: 0.72439 (Simulation time: 0 hr 19 min 38 sec) 
select_counter is 467
Heartbeat CPU 0 instructions: 38000001 cycles: 43756026 heartbeat IPC: 0.723701 cumulative IPC: 0.724365 (Simulation time: 0 hr 20 min 12 sec) 
select_counter is 469
Heartbeat CPU 0 instructions: 39000000 cycles: 45133195 heartbeat IPC: 0.726127 cumulative IPC: 0.724426 (Simulation time: 0 hr 20 min 44 sec) 
select_counter is 466
Heartbeat CPU 0 instructions: 40000000 cycles: 46515612 heartbeat IPC: 0.723371 cumulative IPC: 0.724391 (Simulation time: 0 hr 21 min 16 sec) 
select_counter is 473
Heartbeat CPU 0 instructions: 41000000 cycles: 47896730 heartbeat IPC: 0.724051 cumulative IPC: 0.72438 (Simulation time: 0 hr 21 min 48 sec) 
select_counter is 472
Heartbeat CPU 0 instructions: 42000001 cycles: 49274560 heartbeat IPC: 0.72578 cumulative IPC: 0.724423 (Simulation time: 0 hr 22 min 20 sec) 
select_counter is 468
Heartbeat CPU 0 instructions: 43000002 cycles: 50659869 heartbeat IPC: 0.721861 cumulative IPC: 0.724345 (Simulation time: 0 hr 22 min 56 sec) 
select_counter is 473
Heartbeat CPU 0 instructions: 44000000 cycles: 52058410 heartbeat IPC: 0.715029 cumulative IPC: 0.724068 (Simulation time: 0 hr 23 min 28 sec) 
select_counter is 468
Heartbeat CPU 0 instructions: 45000000 cycles: 53436750 heartbeat IPC: 0.72551 cumulative IPC: 0.724109 (Simulation time: 0 hr 24 min 2 sec) 
select_counter is 469
Heartbeat CPU 0 instructions: 46000002 cycles: 54818856 heartbeat IPC: 0.723535 cumulative IPC: 0.724093 (Simulation time: 0 hr 24 min 33 sec) 
select_counter is 467
Heartbeat CPU 0 instructions: 47000000 cycles: 56203599 heartbeat IPC: 0.722154 cumulative IPC: 0.724041 (Simulation time: 0 hr 25 min 7 sec) 
select_counter is 463
Heartbeat CPU 0 instructions: 48000000 cycles: 57558341 heartbeat IPC: 0.738148 cumulative IPC: 0.724405 (Simulation time: 0 hr 25 min 41 sec) 
select_counter is 463
Heartbeat CPU 0 instructions: 49000000 cycles: 58926160 heartbeat IPC: 0.731091 cumulative IPC: 0.724575 (Simulation time: 0 hr 26 min 14 sec) 
select_counter is 460
Heartbeat CPU 0 instructions: 50000000 cycles: 60319932 heartbeat IPC: 0.717477 cumulative IPC: 0.724396 (Simulation time: 0 hr 26 min 46 sec) 
select_counter is 464
Heartbeat CPU 0 instructions: 51000000 cycles: 61691094 heartbeat IPC: 0.729308 cumulative IPC: 0.724515 (Simulation time: 0 hr 27 min 23 sec) 
select_counter is 455
Heartbeat CPU 0 instructions: 52000000 cycles: 63072545 heartbeat IPC: 0.723877 cumulative IPC: 0.724499 (Simulation time: 0 hr 28 min 1 sec) 
select_counter is 466
Heartbeat CPU 0 instructions: 53000003 cycles: 64450077 heartbeat IPC: 0.725938 cumulative IPC: 0.724533 (Simulation time: 0 hr 28 min 40 sec) 
select_counter is 469
Heartbeat CPU 0 instructions: 54000000 cycles: 65830492 heartbeat IPC: 0.724418 cumulative IPC: 0.72453 (Simulation time: 0 hr 29 min 16 sec) 
select_counter is 470
Heartbeat CPU 0 instructions: 55000002 cycles: 67209654 heartbeat IPC: 0.725079 cumulative IPC: 0.724542 (Simulation time: 0 hr 29 min 52 sec) 
select_counter is 469
Heartbeat CPU 0 instructions: 56000000 cycles: 68587696 heartbeat IPC: 0.725666 cumulative IPC: 0.724567 (Simulation time: 0 hr 30 min 29 sec) 
select_counter is 469
Heartbeat CPU 0 instructions: 57000000 cycles: 69970665 heartbeat IPC: 0.723082 cumulative IPC: 0.724535 (Simulation time: 0 hr 31 min 7 sec) 
select_counter is 468
Heartbeat CPU 0 instructions: 58000000 cycles: 71353771 heartbeat IPC: 0.72301 cumulative IPC: 0.724503 (Simulation time: 0 hr 31 min 44 sec) 
select_counter is 463
Heartbeat CPU 0 instructions: 59000000 cycles: 72736724 heartbeat IPC: 0.72309 cumulative IPC: 0.724474 (Simulation time: 0 hr 32 min 19 sec) 
select_counter is 465
Heartbeat CPU 0 instructions: 60000000 cycles: 74119094 heartbeat IPC: 0.723395 cumulative IPC: 0.724453 (Simulation time: 0 hr 32 min 53 sec) 
select_counter is 468
Heartbeat CPU 0 instructions: 61000000 cycles: 75498669 heartbeat IPC: 0.724861 cumulative IPC: 0.724461 (Simulation time: 0 hr 33 min 29 sec) 
select_counter is 468
Heartbeat CPU 0 instructions: 62000000 cycles: 76882667 heartbeat IPC: 0.722544 cumulative IPC: 0.724424 (Simulation time: 0 hr 34 min 6 sec) 
select_counter is 471
Heartbeat CPU 0 instructions: 63000001 cycles: 78270844 heartbeat IPC: 0.72037 cumulative IPC: 0.724347 (Simulation time: 0 hr 34 min 44 sec) 
select_counter is 470
Heartbeat CPU 0 instructions: 64000000 cycles: 79661891 heartbeat IPC: 0.718882 cumulative IPC: 0.724245 (Simulation time: 0 hr 35 min 21 sec) 
select_counter is 472
Heartbeat CPU 0 instructions: 65000000 cycles: 81035328 heartbeat IPC: 0.7281 cumulative IPC: 0.724315 (Simulation time: 0 hr 35 min 56 sec) 
select_counter is 465
Heartbeat CPU 0 instructions: 66000001 cycles: 82420488 heartbeat IPC: 0.721939 cumulative IPC: 0.724272 (Simulation time: 0 hr 36 min 31 sec) 
select_counter is 467
Heartbeat CPU 0 instructions: 67000001 cycles: 83788104 heartbeat IPC: 0.731199 cumulative IPC: 0.724393 (Simulation time: 0 hr 37 min 7 sec) 
select_counter is 465
Heartbeat CPU 0 instructions: 68000000 cycles: 85153358 heartbeat IPC: 0.732464 cumulative IPC: 0.72453 (Simulation time: 0 hr 37 min 42 sec) 
select_counter is 465
Heartbeat CPU 0 instructions: 69000000 cycles: 86538876 heartbeat IPC: 0.721752 cumulative IPC: 0.724483 (Simulation time: 0 hr 38 min 18 sec) 
select_counter is 467
Heartbeat CPU 0 instructions: 70000002 cycles: 87905948 heartbeat IPC: 0.731492 cumulative IPC: 0.724599 (Simulation time: 0 hr 38 min 56 sec) 
select_counter is 460
Heartbeat CPU 0 instructions: 71000000 cycles: 89278701 heartbeat IPC: 0.728462 cumulative IPC: 0.724662 (Simulation time: 0 hr 39 min 31 sec) 
select_counter is 455
Heartbeat CPU 0 instructions: 72000000 cycles: 90642294 heartbeat IPC: 0.733357 cumulative IPC: 0.7248 (Simulation time: 0 hr 40 min 4 sec) 
select_counter is 455
Heartbeat CPU 0 instructions: 73000000 cycles: 92007834 heartbeat IPC: 0.732311 cumulative IPC: 0.724918 (Simulation time: 0 hr 40 min 36 sec) 
select_counter is 451
Heartbeat CPU 0 instructions: 74000000 cycles: 93384699 heartbeat IPC: 0.726288 cumulative IPC: 0.72494 (Simulation time: 0 hr 41 min 8 sec) 
select_counter is 455
Heartbeat CPU 0 instructions: 75000001 cycles: 94751316 heartbeat IPC: 0.731735 cumulative IPC: 0.725043 (Simulation time: 0 hr 41 min 41 sec) 
select_counter is 457
Heartbeat CPU 0 instructions: 76000000 cycles: 96137250 heartbeat IPC: 0.721534 cumulative IPC: 0.72499 (Simulation time: 0 hr 42 min 15 sec) 
select_counter is 464
Heartbeat CPU 0 instructions: 77000003 cycles: 97503758 heartbeat IPC: 0.731794 cumulative IPC: 0.72509 (Simulation time: 0 hr 42 min 47 sec) 
select_counter is 460
Heartbeat CPU 0 instructions: 78000000 cycles: 98881554 heartbeat IPC: 0.725795 cumulative IPC: 0.725101 (Simulation time: 0 hr 43 min 19 sec) 
select_counter is 461
Heartbeat CPU 0 instructions: 79000002 cycles: 100258649 heartbeat IPC: 0.726168 cumulative IPC: 0.725116 (Simulation time: 0 hr 43 min 51 sec) 
select_counter is 461
Heartbeat CPU 0 instructions: 80000000 cycles: 101642486 heartbeat IPC: 0.722627 cumulative IPC: 0.725081 (Simulation time: 0 hr 44 min 23 sec) 
select_counter is 458
Heartbeat CPU 0 instructions: 81000000 cycles: 103029398 heartbeat IPC: 0.721026 cumulative IPC: 0.725023 (Simulation time: 0 hr 44 min 54 sec) 
select_counter is 462
Heartbeat CPU 0 instructions: 82000000 cycles: 104410338 heartbeat IPC: 0.724144 cumulative IPC: 0.725011 (Simulation time: 0 hr 45 min 22 sec) 
select_counter is 468
Heartbeat CPU 0 instructions: 83000000 cycles: 105794249 heartbeat IPC: 0.72259 cumulative IPC: 0.724978 (Simulation time: 0 hr 45 min 50 sec) 
select_counter is 466
Heartbeat CPU 0 instructions: 84000000 cycles: 107175522 heartbeat IPC: 0.72397 cumulative IPC: 0.724964 (Simulation time: 0 hr 46 min 17 sec) 
select_counter is 468
Heartbeat CPU 0 instructions: 85000000 cycles: 108550900 heartbeat IPC: 0.727073 cumulative IPC: 0.724992 (Simulation time: 0 hr 46 min 43 sec) 
select_counter is 465
Heartbeat CPU 0 instructions: 86000001 cycles: 109932619 heartbeat IPC: 0.723737 cumulative IPC: 0.724975 (Simulation time: 0 hr 47 min 5 sec) 
select_counter is 462
Heartbeat CPU 0 instructions: 87000001 cycles: 111314640 heartbeat IPC: 0.723578 cumulative IPC: 0.724957 (Simulation time: 0 hr 47 min 29 sec) 
select_counter is 467
Heartbeat CPU 0 instructions: 88000000 cycles: 112694350 heartbeat IPC: 0.724789 cumulative IPC: 0.724955 (Simulation time: 0 hr 47 min 51 sec) 
select_counter is 469
Heartbeat CPU 0 instructions: 89000003 cycles: 114077375 heartbeat IPC: 0.723055 cumulative IPC: 0.724931 (Simulation time: 0 hr 48 min 13 sec) 
select_counter is 467
Heartbeat CPU 0 instructions: 90000000 cycles: 115453976 heartbeat IPC: 0.726425 cumulative IPC: 0.72495 (Simulation time: 0 hr 48 min 32 sec) 
select_counter is 465
Heartbeat CPU 0 instructions: 91000001 cycles: 116845695 heartbeat IPC: 0.718537 cumulative IPC: 0.72487 (Simulation time: 0 hr 48 min 53 sec) 
select_counter is 467
Heartbeat CPU 0 instructions: 92000000 cycles: 118230484 heartbeat IPC: 0.722131 cumulative IPC: 0.724836 (Simulation time: 0 hr 49 min 14 sec) 
select_counter is 476
Heartbeat CPU 0 instructions: 93000000 cycles: 119613379 heartbeat IPC: 0.723121 cumulative IPC: 0.724816 (Simulation time: 0 hr 49 min 32 sec) 
select_counter is 476
Heartbeat CPU 0 instructions: 94000002 cycles: 120993044 heartbeat IPC: 0.724815 cumulative IPC: 0.724816 (Simulation time: 0 hr 49 min 51 sec) 
select_counter is 482
Heartbeat CPU 0 instructions: 95000001 cycles: 122372319 heartbeat IPC: 0.725018 cumulative IPC: 0.724818 (Simulation time: 0 hr 50 min 9 sec) 
select_counter is 480
Heartbeat CPU 0 instructions: 96000000 cycles: 123740180 heartbeat IPC: 0.731068 cumulative IPC: 0.72489 (Simulation time: 0 hr 50 min 26 sec) 
select_counter is 475
Heartbeat CPU 0 instructions: 97000000 cycles: 125110348 heartbeat IPC: 0.729838 cumulative IPC: 0.724946 (Simulation time: 0 hr 50 min 43 sec) 
select_counter is 473
Heartbeat CPU 0 instructions: 98000003 cycles: 126479572 heartbeat IPC: 0.730343 cumulative IPC: 0.725007 (Simulation time: 0 hr 50 min 59 sec) 
select_counter is 469
Heartbeat CPU 0 instructions: 99000000 cycles: 127848217 heartbeat IPC: 0.730647 cumulative IPC: 0.72507 (Simulation time: 0 hr 51 min 13 sec) 
select_counter is 471
Heartbeat CPU 0 instructions: 100000000 cycles: 129210491 heartbeat IPC: 0.734067 cumulative IPC: 0.725169 (Simulation time: 0 hr 51 min 26 sec) 
select_counter is 473
Heartbeat CPU 0 instructions: 101000000 cycles: 130575190 heartbeat IPC: 0.732762 cumulative IPC: 0.725252 (Simulation time: 0 hr 51 min 41 sec) 
select_counter is 478
Heartbeat CPU 0 instructions: 102000002 cycles: 131954749 heartbeat IPC: 0.724871 cumulative IPC: 0.725247 (Simulation time: 0 hr 51 min 54 sec) 
select_counter is 474
Heartbeat CPU 0 instructions: 103000003 cycles: 133323699 heartbeat IPC: 0.730488 cumulative IPC: 0.725303 (Simulation time: 0 hr 52 min 5 sec) 
select_counter is 478
Heartbeat CPU 0 instructions: 104000000 cycles: 134700161 heartbeat IPC: 0.726498 cumulative IPC: 0.725316 (Simulation time: 0 hr 52 min 16 sec) 
select_counter is 474
Heartbeat CPU 0 instructions: 105000000 cycles: 136064019 heartbeat IPC: 0.733214 cumulative IPC: 0.725398 (Simulation time: 0 hr 52 min 27 sec) 
select_counter is 475
Heartbeat CPU 0 instructions: 106000001 cycles: 137445709 heartbeat IPC: 0.723752 cumulative IPC: 0.725381 (Simulation time: 0 hr 52 min 38 sec) 
select_counter is 474
Heartbeat CPU 0 instructions: 107000000 cycles: 138830214 heartbeat IPC: 0.722279 cumulative IPC: 0.725349 (Simulation time: 0 hr 52 min 49 sec) 
select_counter is 472
Heartbeat CPU 0 instructions: 108000000 cycles: 140211281 heartbeat IPC: 0.724078 cumulative IPC: 0.725336 (Simulation time: 0 hr 52 min 58 sec) 
select_counter is 474
Heartbeat CPU 0 instructions: 109000003 cycles: 141605204 heartbeat IPC: 0.717402 cumulative IPC: 0.725255 (Simulation time: 0 hr 53 min 8 sec) 
select_counter is 480
Heartbeat CPU 0 instructions: 110000001 cycles: 142987307 heartbeat IPC: 0.723534 cumulative IPC: 0.725238 (Simulation time: 0 hr 53 min 18 sec) 
select_counter is 482
Finished CPU 0 instructions: 100000001 cycles: 137885817 cummulative IPC: 0.725238 (Simulation time: 0 hr 53 min 18 sec) 

ChampSim completed all CPUs

Region of Interest Statistics

CPU 0 cummulative IPC: 0.725238 instructions: 100000001 cycles: 137885817
LLC TOTAL     ACCESS:      42522  HIT:       7956  MISS:      34566
LLC LOAD      ACCESS:      13577  HIT:        372  MISS:      13205
LLC RFO       ACCESS:       3352  HIT:         12  MISS:       3340
LLC PREFETCH  ACCESS:      17694  HIT:        443  MISS:      17251
LLC WRITEBACK ACCESS:       7899  HIT:       7129  MISS:        770
Ship samples: size is 64
18, 46, 70, 92, 137, 187, 208, 220, 253, 307, 332, 352, 382, 422, 451, 480, 511, 562, 577, 607, 634, 691, 705, 728, 756, 802, 828, 843, 886, 928, 964, 967, 1008, 1065, 1074, 1112, 1141, 1194, 1200, 1221, 1263, 1314, 1339, 1357, 1395, 1445, 1461, 1481, 1523, 1573, 1585, 1612, 1639, 1692, 1706, 1729, 1774, 1823, 1828, 1865, 1909, 1941, 1956, 1975, 
Ship duel samples: size is 96
18, 38, 46, 70, 92, 117, 137, 158, 187, 208, 220, 234, 253, 274, 307, 332, 352, 374, 382, 400, 422, 451, 480, 497, 511, 528, 562, 577, 607, 620, 634, 653, 691, 705, 728, 742, 756, 787, 802, 828, 843, 871, 886, 923, 928, 964, 967, 990, 1008, 1041, 1065, 1074, 1112, 1123, 1141, 1168, 1194, 1200, 1221, 1241, 1263, 1301, 1314, 1339, 1357, 1370, 1395, 1408, 1445, 1461, 1481, 1491, 1523, 1546, 1573, 1585, 1612, 1634, 1639, 1667, 1692, 1706, 1729, 1763, 1774, 1805, 1823, 1828, 1865, 1883, 1909, 1920, 1941, 1956, 1975, 2007, 
Lime duel samples: size is 96
13, 23, 54, 72, 91, 112, 135, 160, 182, 199, 210, 233, 266, 280, 294, 328, 354, 364, 397, 408, 430, 460, 474, 494, 515, 540, 553, 586, 606, 626, 640, 662, 689, 713, 732, 737, 762, 781, 811, 837, 853, 873, 902, 907, 941, 945, 983, 1001, 1013, 1044, 1051, 1087, 1105, 1126, 1138, 1156, 1183, 1207, 1237, 1244, 1264, 1289, 1316, 1342, 1349, 1374, 1386, 1419, 1440, 1463, 1479, 1495, 1515, 1540, 1562, 1595, 1601, 1621, 1652, 1669, 1698, 1716, 1727, 1751, 1771, 1793, 1814, 1840, 1864, 1873, 1906, 1931, 1942, 1962, 1992, 2010, 
Lime samples: size is 15
13, 135, 266, 397, 515, 640, 762, 902, 1013, 1138, 1264, 1386, 1515, 1652, 1771, 
Insertion Distribution: 
	LOAD 0 0 0 0 0 0 11192 2885 
	RFO 0 0 0 0 0 0 3435 0 
	PREF 0 0 0 0 0 0 13225 5077 
	WRITEBACK 0 0 0 0 0 0 0 733 
Total Prefetch Downgrades: 151
