
*** ChampSim Multicore Out-of-Order Simulator ***

Warmup Instructions: 10000000
Simulation Instructions: 100000000
Configuration: 2
Number of CPUs: 1
LLC sets: 2048
LLC ways: 16
Off-chip DRAM Channels: 1 Width: 64-bit Data Rate: 1600 MT/s

CPU 0 runs /datasets/cs240c-wi22-a00-public/data/Assignment2-gz/sphinx3_883B.trace.gz
CPU 0 L1D next line prefetcher
CPU 0 L2C IP-based stride prefetcher
Heartbeat CPU 0 instructions: 1000003 cycles: 414387 heartbeat IPC: 2.41321 cumulative IPC: 2.41321 (Simulation time: 0 hr 0 min 24 sec) 
select_counter is 485
Heartbeat CPU 0 instructions: 2000000 cycles: 823938 heartbeat IPC: 2.44169 cumulative IPC: 2.42737 (Simulation time: 0 hr 0 min 49 sec) 
select_counter is 445
Heartbeat CPU 0 instructions: 3000003 cycles: 1298781 heartbeat IPC: 2.10597 cumulative IPC: 2.30986 (Simulation time: 0 hr 1 min 12 sec) 
select_counter is 372
Heartbeat CPU 0 instructions: 4000000 cycles: 1637671 heartbeat IPC: 2.9508 cumulative IPC: 2.44249 (Simulation time: 0 hr 1 min 35 sec) 
select_counter is 383
Heartbeat CPU 0 instructions: 5000000 cycles: 1992329 heartbeat IPC: 2.81962 cumulative IPC: 2.50963 (Simulation time: 0 hr 2 min 0 sec) 
select_counter is 394
Heartbeat CPU 0 instructions: 6000003 cycles: 2406737 heartbeat IPC: 2.41309 cumulative IPC: 2.493 (Simulation time: 0 hr 2 min 26 sec) 
select_counter is 546
Heartbeat CPU 0 instructions: 7000002 cycles: 2815511 heartbeat IPC: 2.44634 cumulative IPC: 2.48623 (Simulation time: 0 hr 2 min 50 sec) 
select_counter is 647
Heartbeat CPU 0 instructions: 8000000 cycles: 3291717 heartbeat IPC: 2.09993 cumulative IPC: 2.43034 (Simulation time: 0 hr 3 min 13 sec) 
select_counter is 482
Heartbeat CPU 0 instructions: 9000001 cycles: 3630717 heartbeat IPC: 2.94986 cumulative IPC: 2.47885 (Simulation time: 0 hr 3 min 35 sec) 
select_counter is 990
Heartbeat CPU 0 instructions: 10000000 cycles: 3984820 heartbeat IPC: 2.82403 cumulative IPC: 2.50952 (Simulation time: 0 hr 3 min 56 sec) 
select_counter is 850

Warmup complete CPU 0 instructions: 10000004 cycles: 3984821 (Simulation time: 0 hr 3 min 56 sec) 

Heartbeat CPU 0 instructions: 11000002 cycles: 5649636 heartbeat IPC: 0.600668 cumulative IPC: 0.600666 (Simulation time: 0 hr 4 min 27 sec) 
select_counter is 1011
Heartbeat CPU 0 instructions: 12000000 cycles: 7168095 heartbeat IPC: 0.658561 cumulative IPC: 0.628283 (Simulation time: 0 hr 4 min 56 sec) 
select_counter is 1023
Heartbeat CPU 0 instructions: 13000001 cycles: 8343440 heartbeat IPC: 0.850815 cumulative IPC: 0.688291 (Simulation time: 0 hr 5 min 23 sec) 
select_counter is 878
Heartbeat CPU 0 instructions: 14000002 cycles: 9131564 heartbeat IPC: 1.26884 cumulative IPC: 0.77719 (Simulation time: 0 hr 5 min 50 sec) 
select_counter is 447
Heartbeat CPU 0 instructions: 15000000 cycles: 10034641 heartbeat IPC: 1.10732 cumulative IPC: 0.82647 (Simulation time: 0 hr 6 min 14 sec) 
select_counter is 197
Heartbeat CPU 0 instructions: 16000000 cycles: 11557151 heartbeat IPC: 0.65681 cumulative IPC: 0.792358 (Simulation time: 0 hr 6 min 44 sec) 
select_counter is 392
Heartbeat CPU 0 instructions: 17000000 cycles: 13032086 heartbeat IPC: 0.677996 cumulative IPC: 0.773714 (Simulation time: 0 hr 7 min 11 sec) 
select_counter is 498
Heartbeat CPU 0 instructions: 18000002 cycles: 14276933 heartbeat IPC: 0.803313 cumulative IPC: 0.777294 (Simulation time: 0 hr 7 min 36 sec) 
select_counter is 457
Heartbeat CPU 0 instructions: 19000003 cycles: 15161102 heartbeat IPC: 1.13101 cumulative IPC: 0.805277 (Simulation time: 0 hr 8 min 0 sec) 
select_counter is 281
Heartbeat CPU 0 instructions: 20000000 cycles: 15948690 heartbeat IPC: 1.2697 cumulative IPC: 0.83585 (Simulation time: 0 hr 8 min 25 sec) 
select_counter is 970
Heartbeat CPU 0 instructions: 21000000 cycles: 17567045 heartbeat IPC: 0.617911 cumulative IPC: 0.809882 (Simulation time: 0 hr 8 min 55 sec) 
select_counter is 1022
Heartbeat CPU 0 instructions: 22000003 cycles: 19191723 heartbeat IPC: 0.615508 cumulative IPC: 0.789115 (Simulation time: 0 hr 9 min 22 sec) 
select_counter is 1001
Heartbeat CPU 0 instructions: 23000001 cycles: 20755441 heartbeat IPC: 0.6395 cumulative IPC: 0.775165 (Simulation time: 0 hr 9 min 51 sec) 
select_counter is 963
Heartbeat CPU 0 instructions: 24000000 cycles: 21672176 heartbeat IPC: 1.09083 cumulative IPC: 0.791526 (Simulation time: 0 hr 10 min 16 sec) 
select_counter is 832
Heartbeat CPU 0 instructions: 25000001 cycles: 22491497 heartbeat IPC: 1.22052 cumulative IPC: 0.810518 (Simulation time: 0 hr 10 min 42 sec) 
select_counter is 533
Heartbeat CPU 0 instructions: 26000001 cycles: 23689955 heartbeat IPC: 0.834406 cumulative IPC: 0.811971 (Simulation time: 0 hr 11 min 9 sec) 
select_counter is 514
Heartbeat CPU 0 instructions: 27000000 cycles: 25205468 heartbeat IPC: 0.659842 cumulative IPC: 0.801106 (Simulation time: 0 hr 11 min 38 sec) 
select_counter is 611
Heartbeat CPU 0 instructions: 28000000 cycles: 26711572 heartbeat IPC: 0.663965 cumulative IPC: 0.792018 (Simulation time: 0 hr 12 min 5 sec) 
select_counter is 684
Heartbeat CPU 0 instructions: 29000000 cycles: 27713738 heartbeat IPC: 0.997839 cumulative IPC: 0.800711 (Simulation time: 0 hr 12 min 31 sec) 
select_counter is 552
Heartbeat CPU 0 instructions: 30000000 cycles: 28565425 heartbeat IPC: 1.17414 cumulative IPC: 0.813649 (Simulation time: 0 hr 12 min 56 sec) 
select_counter is 387
Heartbeat CPU 0 instructions: 31000003 cycles: 29654467 heartbeat IPC: 0.918241 cumulative IPC: 0.818087 (Simulation time: 0 hr 13 min 24 sec) 
select_counter is 277
Heartbeat CPU 0 instructions: 32000000 cycles: 31159010 heartbeat IPC: 0.664652 cumulative IPC: 0.809592 (Simulation time: 0 hr 13 min 50 sec) 
select_counter is 387
Heartbeat CPU 0 instructions: 33000000 cycles: 32604798 heartbeat IPC: 0.691664 cumulative IPC: 0.803634 (Simulation time: 0 hr 14 min 16 sec) 
select_counter is 473
Heartbeat CPU 0 instructions: 34000000 cycles: 33726661 heartbeat IPC: 0.891374 cumulative IPC: 0.806944 (Simulation time: 0 hr 14 min 42 sec) 
select_counter is 288
Heartbeat CPU 0 instructions: 35000003 cycles: 34586620 heartbeat IPC: 1.16285 cumulative IPC: 0.816945 (Simulation time: 0 hr 15 min 5 sec) 
select_counter is 165
Heartbeat CPU 0 instructions: 36000000 cycles: 35630593 heartbeat IPC: 0.957876 cumulative IPC: 0.821595 (Simulation time: 0 hr 15 min 33 sec) 
select_counter is 1022
Heartbeat CPU 0 instructions: 37000001 cycles: 37229278 heartbeat IPC: 0.625515 cumulative IPC: 0.812165 (Simulation time: 0 hr 16 min 1 sec) 
select_counter is 1020
Heartbeat CPU 0 instructions: 38000000 cycles: 38766632 heartbeat IPC: 0.650468 cumulative IPC: 0.805018 (Simulation time: 0 hr 16 min 28 sec) 
select_counter is 1010
Heartbeat CPU 0 instructions: 39000003 cycles: 39922616 heartbeat IPC: 0.865066 cumulative IPC: 0.80695 (Simulation time: 0 hr 16 min 53 sec) 
select_counter is 809
Heartbeat CPU 0 instructions: 40000000 cycles: 40771646 heartbeat IPC: 1.17781 cumulative IPC: 0.815509 (Simulation time: 0 hr 17 min 20 sec) 
select_counter is 705
Heartbeat CPU 0 instructions: 41000003 cycles: 41778319 heartbeat IPC: 0.993374 cumulative IPC: 0.820247 (Simulation time: 0 hr 17 min 42 sec) 
select_counter is 605
Heartbeat CPU 0 instructions: 42000000 cycles: 43302993 heartbeat IPC: 0.655876 cumulative IPC: 0.813873 (Simulation time: 0 hr 18 min 10 sec) 
select_counter is 694
Heartbeat CPU 0 instructions: 43000003 cycles: 44786095 heartbeat IPC: 0.674264 cumulative IPC: 0.808798 (Simulation time: 0 hr 18 min 37 sec) 
select_counter is 772
Heartbeat CPU 0 instructions: 44000000 cycles: 45818266 heartbeat IPC: 0.968829 cumulative IPC: 0.812747 (Simulation time: 0 hr 19 min 3 sec) 
select_counter is 585
Heartbeat CPU 0 instructions: 45000002 cycles: 46672716 heartbeat IPC: 1.17035 cumulative IPC: 0.819905 (Simulation time: 0 hr 19 min 30 sec) 
select_counter is 441
Heartbeat CPU 0 instructions: 46000001 cycles: 47718244 heartbeat IPC: 0.956454 cumulative IPC: 0.823169 (Simulation time: 0 hr 19 min 58 sec) 
select_counter is 387
Heartbeat CPU 0 instructions: 47000002 cycles: 49213760 heartbeat IPC: 0.668666 cumulative IPC: 0.81806 (Simulation time: 0 hr 20 min 27 sec) 
select_counter is 452
Heartbeat CPU 0 instructions: 48000000 cycles: 50699476 heartbeat IPC: 0.673075 cumulative IPC: 0.813449 (Simulation time: 0 hr 20 min 53 sec) 
select_counter is 513
Heartbeat CPU 0 instructions: 49000001 cycles: 51655766 heartbeat IPC: 1.04571 cumulative IPC: 0.818108 (Simulation time: 0 hr 21 min 19 sec) 
select_counter is 363
Heartbeat CPU 0 instructions: 50000000 cycles: 52510476 heartbeat IPC: 1.16999 cumulative IPC: 0.824306 (Simulation time: 0 hr 21 min 44 sec) 
select_counter is 256
Heartbeat CPU 0 instructions: 51000003 cycles: 53620446 heartbeat IPC: 0.900928 cumulative IPC: 0.82602 (Simulation time: 0 hr 22 min 10 sec) 
select_counter is 244
Heartbeat CPU 0 instructions: 52000000 cycles: 55221699 heartbeat IPC: 0.624509 cumulative IPC: 0.819722 (Simulation time: 0 hr 22 min 40 sec) 
select_counter is 300
Heartbeat CPU 0 instructions: 53000000 cycles: 56966967 heartbeat IPC: 0.572978 cumulative IPC: 0.811594 (Simulation time: 0 hr 23 min 8 sec) 
select_counter is 359
Heartbeat CPU 0 instructions: 54000003 cycles: 58248672 heartbeat IPC: 0.780213 cumulative IPC: 0.810853 (Simulation time: 0 hr 23 min 35 sec) 
select_counter is 379
Heartbeat CPU 0 instructions: 55000003 cycles: 59158363 heartbeat IPC: 1.09927 cumulative IPC: 0.815608 (Simulation time: 0 hr 24 min 1 sec) 
select_counter is 372
Heartbeat CPU 0 instructions: 56000000 cycles: 60036622 heartbeat IPC: 1.13861 cumulative IPC: 0.820669 (Simulation time: 0 hr 24 min 27 sec) 
select_counter is 319
Heartbeat CPU 0 instructions: 57000002 cycles: 61195309 heartbeat IPC: 0.863048 cumulative IPC: 0.821528 (Simulation time: 0 hr 24 min 52 sec) 
select_counter is 315
Heartbeat CPU 0 instructions: 58000001 cycles: 62248278 heartbeat IPC: 0.949695 cumulative IPC: 0.823844 (Simulation time: 0 hr 25 min 17 sec) 
select_counter is 309
Heartbeat CPU 0 instructions: 59000003 cycles: 63095897 heartbeat IPC: 1.17978 cumulative IPC: 0.828948 (Simulation time: 0 hr 25 min 45 sec) 
select_counter is 256
Heartbeat CPU 0 instructions: 60000000 cycles: 63972640 heartbeat IPC: 1.14058 cumulative IPC: 0.833502 (Simulation time: 0 hr 26 min 10 sec) 
select_counter is 243
Heartbeat CPU 0 instructions: 61000001 cycles: 65203353 heartbeat IPC: 0.812538 cumulative IPC: 0.833081 (Simulation time: 0 hr 26 min 35 sec) 
select_counter is 270
Heartbeat CPU 0 instructions: 62000001 cycles: 66043617 heartbeat IPC: 1.1901 cumulative IPC: 0.837915 (Simulation time: 0 hr 27 min 2 sec) 
select_counter is 209
Heartbeat CPU 0 instructions: 63000000 cycles: 66866609 heartbeat IPC: 1.21508 cumulative IPC: 0.842851 (Simulation time: 0 hr 27 min 31 sec) 
select_counter is 178
Heartbeat CPU 0 instructions: 64000000 cycles: 68155920 heartbeat IPC: 0.775608 cumulative IPC: 0.8415 (Simulation time: 0 hr 28 min 2 sec) 
select_counter is 229
Heartbeat CPU 0 instructions: 65000003 cycles: 69010389 heartbeat IPC: 1.17032 cumulative IPC: 0.845821 (Simulation time: 0 hr 28 min 31 sec) 
select_counter is 158
Heartbeat CPU 0 instructions: 66000002 cycles: 69844355 heartbeat IPC: 1.19909 cumulative IPC: 0.850294 (Simulation time: 0 hr 29 min 0 sec) 
select_counter is 119
Heartbeat CPU 0 instructions: 67000000 cycles: 71082744 heartbeat IPC: 0.807499 cumulative IPC: 0.849505 (Simulation time: 0 hr 29 min 30 sec) 
select_counter is 140
Heartbeat CPU 0 instructions: 68000000 cycles: 72712205 heartbeat IPC: 0.6137 cumulative IPC: 0.843914 (Simulation time: 0 hr 30 min 1 sec) 
select_counter is 158
Heartbeat CPU 0 instructions: 69000003 cycles: 73553518 heartbeat IPC: 1.18862 cumulative IPC: 0.848083 (Simulation time: 0 hr 30 min 30 sec) 
select_counter is 71
Heartbeat CPU 0 instructions: 70000000 cycles: 74389005 heartbeat IPC: 1.1969 cumulative IPC: 0.852222 (Simulation time: 0 hr 30 min 56 sec) 
select_counter is 30
Heartbeat CPU 0 instructions: 71000000 cycles: 75548074 heartbeat IPC: 0.862761 cumulative IPC: 0.852393 (Simulation time: 0 hr 31 min 26 sec) 
select_counter is 82
Heartbeat CPU 0 instructions: 72000000 cycles: 77060694 heartbeat IPC: 0.661105 cumulative IPC: 0.848433 (Simulation time: 0 hr 31 min 56 sec) 
select_counter is 146
Heartbeat CPU 0 instructions: 73000000 cycles: 77897805 heartbeat IPC: 1.19458 cumulative IPC: 0.852354 (Simulation time: 0 hr 32 min 23 sec) 
select_counter is 65
Heartbeat CPU 0 instructions: 74000000 cycles: 78738493 heartbeat IPC: 1.1895 cumulative IPC: 0.856145 (Simulation time: 0 hr 32 min 51 sec) 
select_counter is 28
Heartbeat CPU 0 instructions: 75000000 cycles: 79964452 heartbeat IPC: 0.815688 cumulative IPC: 0.855492 (Simulation time: 0 hr 33 min 20 sec) 
select_counter is 102
Heartbeat CPU 0 instructions: 76000000 cycles: 81305851 heartbeat IPC: 0.74549 cumulative IPC: 0.853584 (Simulation time: 0 hr 33 min 50 sec) 
select_counter is 132
Heartbeat CPU 0 instructions: 77000003 cycles: 82159240 heartbeat IPC: 1.1718 cumulative IPC: 0.857058 (Simulation time: 0 hr 34 min 18 sec) 
select_counter is 53
Heartbeat CPU 0 instructions: 78000000 cycles: 82989092 heartbeat IPC: 1.20503 cumulative IPC: 0.860713 (Simulation time: 0 hr 34 min 47 sec) 
select_counter is 25
Heartbeat CPU 0 instructions: 79000001 cycles: 84384724 heartbeat IPC: 0.716522 cumulative IPC: 0.85821 (Simulation time: 0 hr 35 min 18 sec) 
select_counter is 102
Heartbeat CPU 0 instructions: 80000000 cycles: 85576575 heartbeat IPC: 0.83903 cumulative IPC: 0.85793 (Simulation time: 0 hr 35 min 47 sec) 
select_counter is 116
Heartbeat CPU 0 instructions: 81000000 cycles: 86429321 heartbeat IPC: 1.17268 cumulative IPC: 0.861185 (Simulation time: 0 hr 36 min 15 sec) 
select_counter is 34
Heartbeat CPU 0 instructions: 82000000 cycles: 87246180 heartbeat IPC: 1.2242 cumulative IPC: 0.864747 (Simulation time: 0 hr 36 min 41 sec) 
select_counter is 22
Heartbeat CPU 0 instructions: 83000000 cycles: 88780449 heartbeat IPC: 0.651776 cumulative IPC: 0.860893 (Simulation time: 0 hr 37 min 13 sec) 
select_counter is 165
Heartbeat CPU 0 instructions: 84000000 cycles: 89682052 heartbeat IPC: 1.10914 cumulative IPC: 0.863505 (Simulation time: 0 hr 37 min 40 sec) 
select_counter is 85
Heartbeat CPU 0 instructions: 85000001 cycles: 90500363 heartbeat IPC: 1.22203 cumulative IPC: 0.866896 (Simulation time: 0 hr 38 min 7 sec) 
select_counter is 16
Heartbeat CPU 0 instructions: 86000001 cycles: 91563963 heartbeat IPC: 0.940203 cumulative IPC: 0.867787 (Simulation time: 0 hr 38 min 35 sec) 
select_counter is 41
Heartbeat CPU 0 instructions: 87000000 cycles: 92810717 heartbeat IPC: 0.802082 cumulative IPC: 0.866864 (Simulation time: 0 hr 39 min 3 sec) 
select_counter is 79
Heartbeat CPU 0 instructions: 88000000 cycles: 93642735 heartbeat IPC: 1.2019 cumulative IPC: 0.869973 (Simulation time: 0 hr 39 min 28 sec) 
select_counter is 998
Heartbeat CPU 0 instructions: 89000000 cycles: 94449599 heartbeat IPC: 1.23937 cumulative IPC: 0.873268 (Simulation time: 0 hr 39 min 54 sec) 
select_counter is 981
Heartbeat CPU 0 instructions: 90000000 cycles: 95854252 heartbeat IPC: 0.71192 cumulative IPC: 0.870801 (Simulation time: 0 hr 40 min 21 sec) 
select_counter is 1015
Heartbeat CPU 0 instructions: 91000003 cycles: 97103265 heartbeat IPC: 0.800635 cumulative IPC: 0.86986 (Simulation time: 0 hr 40 min 47 sec) 
select_counter is 1020
Heartbeat CPU 0 instructions: 92000000 cycles: 98052996 heartbeat IPC: 1.05293 cumulative IPC: 0.871708 (Simulation time: 0 hr 41 min 14 sec) 
select_counter is 972
Heartbeat CPU 0 instructions: 93000000 cycles: 98870694 heartbeat IPC: 1.22295 cumulative IPC: 0.874735 (Simulation time: 0 hr 41 min 40 sec) 
select_counter is 890
Heartbeat CPU 0 instructions: 94000002 cycles: 99693378 heartbeat IPC: 1.21554 cumulative IPC: 0.877664 (Simulation time: 0 hr 42 min 6 sec) 
select_counter is 887
Heartbeat CPU 0 instructions: 95000001 cycles: 101079477 heartbeat IPC: 0.721448 cumulative IPC: 0.875434 (Simulation time: 0 hr 42 min 34 sec) 
select_counter is 998
Heartbeat CPU 0 instructions: 96000000 cycles: 101909171 heartbeat IPC: 1.20526 cumulative IPC: 0.878229 (Simulation time: 0 hr 43 min 0 sec) 
select_counter is 880
Heartbeat CPU 0 instructions: 97000002 cycles: 102749311 heartbeat IPC: 1.19028 cumulative IPC: 0.880883 (Simulation time: 0 hr 43 min 24 sec) 
select_counter is 846
Heartbeat CPU 0 instructions: 98000003 cycles: 103925841 heartbeat IPC: 0.849958 cumulative IPC: 0.880519 (Simulation time: 0 hr 43 min 51 sec) 
select_counter is 926
Heartbeat CPU 0 instructions: 99000000 cycles: 104978514 heartbeat IPC: 0.94996 cumulative IPC: 0.881243 (Simulation time: 0 hr 44 min 16 sec) 
select_counter is 905
Heartbeat CPU 0 instructions: 100000000 cycles: 105803527 heartbeat IPC: 1.2121 cumulative IPC: 0.883924 (Simulation time: 0 hr 44 min 38 sec) 
select_counter is 803
Heartbeat CPU 0 instructions: 101000000 cycles: 106627064 heartbeat IPC: 1.21427 cumulative IPC: 0.886575 (Simulation time: 0 hr 45 min 2 sec) 
select_counter is 779
Heartbeat CPU 0 instructions: 102000003 cycles: 108107956 heartbeat IPC: 0.675271 cumulative IPC: 0.883569 (Simulation time: 0 hr 45 min 25 sec) 
select_counter is 905
Heartbeat CPU 0 instructions: 103000001 cycles: 109023559 heartbeat IPC: 1.09217 cumulative IPC: 0.885388 (Simulation time: 0 hr 45 min 45 sec) 
select_counter is 812
Heartbeat CPU 0 instructions: 104000000 cycles: 109855002 heartbeat IPC: 1.20273 cumulative IPC: 0.88788 (Simulation time: 0 hr 46 min 6 sec) 
select_counter is 764
Heartbeat CPU 0 instructions: 105000002 cycles: 110918417 heartbeat IPC: 0.940369 cumulative IPC: 0.888402 (Simulation time: 0 hr 46 min 27 sec) 
select_counter is 809
Heartbeat CPU 0 instructions: 106000003 cycles: 112401626 heartbeat IPC: 0.674214 cumulative IPC: 0.885472 (Simulation time: 0 hr 46 min 48 sec) 
select_counter is 854
Heartbeat CPU 0 instructions: 107000003 cycles: 113245771 heartbeat IPC: 1.18463 cumulative IPC: 0.887783 (Simulation time: 0 hr 47 min 6 sec) 
select_counter is 755
Heartbeat CPU 0 instructions: 108000000 cycles: 114084080 heartbeat IPC: 1.19287 cumulative IPC: 0.890106 (Simulation time: 0 hr 47 min 24 sec) 
select_counter is 705
Heartbeat CPU 0 instructions: 109000001 cycles: 115208226 heartbeat IPC: 0.889565 cumulative IPC: 0.8901 (Simulation time: 0 hr 47 min 42 sec) 
select_counter is 744
Heartbeat CPU 0 instructions: 110000000 cycles: 116578418 heartbeat IPC: 0.729824 cumulative IPC: 0.88815 (Simulation time: 0 hr 48 min 2 sec) 
select_counter is 794
Finished CPU 0 instructions: 100000000 cycles: 112593598 cummulative IPC: 0.88815 (Simulation time: 0 hr 48 min 2 sec) 

ChampSim completed all CPUs

Region of Interest Statistics

CPU 0 cummulative IPC: 0.88815 instructions: 100000000 cycles: 112593598
LLC TOTAL     ACCESS:    1795780  HIT:     703890  MISS:    1091890
LLC LOAD      ACCESS:     314250  HIT:     239238  MISS:      75012
LLC RFO       ACCESS:      99648  HIT:      84316  MISS:      15332
LLC PREFETCH  ACCESS:    1240468  HIT:     245020  MISS:     995448
LLC WRITEBACK ACCESS:     141414  HIT:     135316  MISS:       6098
Ship samples: size is 64
1, 49, 70, 99, 136, 183, 209, 213, 253, 299, 315, 356, 383, 428, 453, 469, 516, 546, 567, 605, 650, 686, 706, 730, 776, 813, 819, 855, 884, 938, 958, 984, 1009, 1066, 1090, 1102, 1151, 1193, 1198, 1233, 1272, 1318, 1331, 1351, 1386, 1447, 1464, 1472, 1519, 1566, 1577, 1603, 1647, 1684, 1706, 1733, 1764, 1823, 1844, 1863, 1908, 1952, 1966, 1986, 
Ship duel samples: size is 96
1, 22, 49, 70, 99, 107, 136, 152, 183, 209, 213, 241, 253, 290, 299, 315, 356, 370, 383, 417, 428, 453, 469, 498, 516, 537, 546, 567, 605, 618, 650, 669, 686, 706, 730, 750, 776, 784, 813, 819, 855, 878, 884, 916, 938, 958, 984, 999, 1009, 1036, 1066, 1090, 1102, 1127, 1151, 1159, 1193, 1198, 1233, 1242, 1272, 1289, 1318, 1331, 1351, 1367, 1386, 1414, 1447, 1464, 1472, 1510, 1519, 1549, 1566, 1577, 1603, 1628, 1647, 1662, 1684, 1706, 1733, 1762, 1764, 1800, 1823, 1844, 1863, 1880, 1908, 1917, 1952, 1966, 1986, 1999, 
Lime duel samples: size is 96
15, 24, 43, 80, 95, 116, 134, 149, 173, 191, 212, 240, 260, 279, 306, 326, 341, 357, 385, 409, 433, 458, 474, 493, 518, 539, 561, 575, 606, 614, 635, 663, 678, 700, 721, 752, 772, 792, 815, 838, 857, 881, 889, 907, 927, 964, 979, 996, 1025, 1049, 1069, 1080, 1107, 1121, 1153, 1163, 1176, 1210, 1232, 1257, 1276, 1300, 1309, 1325, 1347, 1379, 1403, 1426, 1436, 1463, 1487, 1493, 1525, 1536, 1559, 1589, 1616, 1635, 1640, 1675, 1696, 1720, 1724, 1753, 1771, 1785, 1822, 1834, 1859, 1878, 1892, 1916, 1937, 1962, 1979, 2004, 
Lime samples: size is 15
15, 134, 260, 385, 518, 635, 772, 889, 1025, 1153, 1276, 1403, 1525, 1640, 1771, 
Insertion Distribution: 
	LOAD 7787 0 0 0 0 0 15738 31577 
	RFO 7002 0 0 0 0 0 6095 1911 
	PREF 0 2110 0 0 0 0 64441 548503 
	WRITEBACK 0 0 0 0 0 0 0 4733 
Total Prefetch Downgrades: 22047
