
*** ChampSim Multicore Out-of-Order Simulator ***

Warmup Instructions: 10000000
Simulation Instructions: 100000000
Configuration: 2
Number of CPUs: 1
LLC sets: 2048
LLC ways: 16
Off-chip DRAM Channels: 1 Width: 64-bit Data Rate: 1600 MT/s

CPU 0 runs /datasets/cs240c-wi22-a00-public/data/Assignment2-gz/libquantum_1210B.trace.gz
CPU 0 L1D next line prefetcher
CPU 0 L2C IP-based stride prefetcher
Heartbeat CPU 0 instructions: 1000003 cycles: 314916 heartbeat IPC: 3.17546 cumulative IPC: 3.17546 (Simulation time: 0 hr 0 min 15 sec) 
select_counter is 87
Heartbeat CPU 0 instructions: 2000000 cycles: 630170 heartbeat IPC: 3.17204 cumulative IPC: 3.17375 (Simulation time: 0 hr 0 min 29 sec) 
select_counter is 45
Heartbeat CPU 0 instructions: 3000001 cycles: 945979 heartbeat IPC: 3.16647 cumulative IPC: 3.17132 (Simulation time: 0 hr 0 min 43 sec) 
select_counter is 990
Heartbeat CPU 0 instructions: 4000000 cycles: 1260333 heartbeat IPC: 3.18112 cumulative IPC: 3.17376 (Simulation time: 0 hr 0 min 57 sec) 
select_counter is 992
Heartbeat CPU 0 instructions: 5000001 cycles: 1576818 heartbeat IPC: 3.15971 cumulative IPC: 3.17094 (Simulation time: 0 hr 1 min 9 sec) 
select_counter is 939
Heartbeat CPU 0 instructions: 6000002 cycles: 1891318 heartbeat IPC: 3.17965 cumulative IPC: 3.17239 (Simulation time: 0 hr 1 min 23 sec) 
select_counter is 1002
Heartbeat CPU 0 instructions: 7000001 cycles: 2206981 heartbeat IPC: 3.16793 cumulative IPC: 3.17175 (Simulation time: 0 hr 1 min 38 sec) 
select_counter is 971
Heartbeat CPU 0 instructions: 8000000 cycles: 2522385 heartbeat IPC: 3.17053 cumulative IPC: 3.1716 (Simulation time: 0 hr 1 min 53 sec) 
select_counter is 993
Heartbeat CPU 0 instructions: 9000002 cycles: 2837144 heartbeat IPC: 3.17704 cumulative IPC: 3.1722 (Simulation time: 0 hr 2 min 7 sec) 
select_counter is 995
Heartbeat CPU 0 instructions: 10000003 cycles: 3153454 heartbeat IPC: 3.16146 cumulative IPC: 3.17113 (Simulation time: 0 hr 2 min 21 sec) 
select_counter is 982

Warmup complete CPU 0 instructions: 10000003 cycles: 3153454 (Simulation time: 0 hr 2 min 21 sec) 

Heartbeat CPU 0 instructions: 11000001 cycles: 5256806 heartbeat IPC: 0.475431 cumulative IPC: 0.475431 (Simulation time: 0 hr 2 min 45 sec) 
select_counter is 949
Heartbeat CPU 0 instructions: 12000000 cycles: 7299833 heartbeat IPC: 0.489469 cumulative IPC: 0.482348 (Simulation time: 0 hr 3 min 8 sec) 
select_counter is 889
Heartbeat CPU 0 instructions: 13000003 cycles: 9790220 heartbeat IPC: 0.401545 cumulative IPC: 0.452027 (Simulation time: 0 hr 3 min 36 sec) 
select_counter is 655
Heartbeat CPU 0 instructions: 14000001 cycles: 12315882 heartbeat IPC: 0.395935 cumulative IPC: 0.436565 (Simulation time: 0 hr 4 min 2 sec) 
select_counter is 688
Heartbeat CPU 0 instructions: 15000001 cycles: 14853054 heartbeat IPC: 0.39414 cumulative IPC: 0.427365 (Simulation time: 0 hr 4 min 28 sec) 
select_counter is 717
Heartbeat CPU 0 instructions: 16000000 cycles: 17425889 heartbeat IPC: 0.388676 cumulative IPC: 0.420391 (Simulation time: 0 hr 4 min 57 sec) 
select_counter is 773
Heartbeat CPU 0 instructions: 17000000 cycles: 19967766 heartbeat IPC: 0.39341 cumulative IPC: 0.416312 (Simulation time: 0 hr 5 min 23 sec) 
select_counter is 888
Heartbeat CPU 0 instructions: 18000002 cycles: 22517112 heartbeat IPC: 0.392258 cumulative IPC: 0.413145 (Simulation time: 0 hr 5 min 48 sec) 
select_counter is 980
Heartbeat CPU 0 instructions: 19000000 cycles: 25057454 heartbeat IPC: 0.393647 cumulative IPC: 0.410884 (Simulation time: 0 hr 6 min 11 sec) 
select_counter is 175
Heartbeat CPU 0 instructions: 20000000 cycles: 27617167 heartbeat IPC: 0.390669 cumulative IPC: 0.408769 (Simulation time: 0 hr 6 min 37 sec) 
select_counter is 96
Heartbeat CPU 0 instructions: 21000001 cycles: 30161222 heartbeat IPC: 0.393074 cumulative IPC: 0.40729 (Simulation time: 0 hr 7 min 2 sec) 
select_counter is 1018
Heartbeat CPU 0 instructions: 22000003 cycles: 32634372 heartbeat IPC: 0.404343 cumulative IPC: 0.407043 (Simulation time: 0 hr 7 min 29 sec) 
select_counter is 959
Heartbeat CPU 0 instructions: 23000000 cycles: 35119353 heartbeat IPC: 0.402416 cumulative IPC: 0.406683 (Simulation time: 0 hr 7 min 54 sec) 
select_counter is 1004
Heartbeat CPU 0 instructions: 24000000 cycles: 37612894 heartbeat IPC: 0.401036 cumulative IPC: 0.406275 (Simulation time: 0 hr 8 min 20 sec) 
select_counter is 955
Heartbeat CPU 0 instructions: 25000000 cycles: 40117244 heartbeat IPC: 0.399305 cumulative IPC: 0.405802 (Simulation time: 0 hr 8 min 43 sec) 
select_counter is 993
Heartbeat CPU 0 instructions: 26000000 cycles: 42610175 heartbeat IPC: 0.401134 cumulative IPC: 0.405508 (Simulation time: 0 hr 9 min 8 sec) 
select_counter is 984
Heartbeat CPU 0 instructions: 27000003 cycles: 45117494 heartbeat IPC: 0.398834 cumulative IPC: 0.405109 (Simulation time: 0 hr 9 min 35 sec) 
select_counter is 944
Heartbeat CPU 0 instructions: 28000000 cycles: 47499859 heartbeat IPC: 0.41975 cumulative IPC: 0.405895 (Simulation time: 0 hr 10 min 1 sec) 
select_counter is 733
Heartbeat CPU 0 instructions: 29000002 cycles: 49077222 heartbeat IPC: 0.633971 cumulative IPC: 0.413729 (Simulation time: 0 hr 10 min 26 sec) 
select_counter is 263
Heartbeat CPU 0 instructions: 30000001 cycles: 50554994 heartbeat IPC: 0.676694 cumulative IPC: 0.421927 (Simulation time: 0 hr 10 min 51 sec) 
select_counter is 276
Heartbeat CPU 0 instructions: 31000000 cycles: 52025973 heartbeat IPC: 0.679819 cumulative IPC: 0.429689 (Simulation time: 0 hr 11 min 15 sec) 
select_counter is 348
Heartbeat CPU 0 instructions: 32000000 cycles: 53497231 heartbeat IPC: 0.67969 cumulative IPC: 0.436995 (Simulation time: 0 hr 11 min 41 sec) 
select_counter is 475
Heartbeat CPU 0 instructions: 33000000 cycles: 54972539 heartbeat IPC: 0.677825 cumulative IPC: 0.443852 (Simulation time: 0 hr 12 min 6 sec) 
select_counter is 693
Heartbeat CPU 0 instructions: 34000002 cycles: 56449357 heartbeat IPC: 0.677133 cumulative IPC: 0.450316 (Simulation time: 0 hr 12 min 33 sec) 
select_counter is 846
Heartbeat CPU 0 instructions: 35000001 cycles: 57927897 heartbeat IPC: 0.676342 cumulative IPC: 0.456417 (Simulation time: 0 hr 13 min 1 sec) 
select_counter is 1021
Heartbeat CPU 0 instructions: 36000000 cycles: 59404684 heartbeat IPC: 0.677145 cumulative IPC: 0.462212 (Simulation time: 0 hr 13 min 27 sec) 
select_counter is 710
Heartbeat CPU 0 instructions: 37000001 cycles: 60875664 heartbeat IPC: 0.67982 cumulative IPC: 0.467758 (Simulation time: 0 hr 13 min 52 sec) 
select_counter is 704
Heartbeat CPU 0 instructions: 38000002 cycles: 62346708 heartbeat IPC: 0.67979 cumulative IPC: 0.473027 (Simulation time: 0 hr 14 min 17 sec) 
select_counter is 675
Heartbeat CPU 0 instructions: 39000001 cycles: 63817572 heartbeat IPC: 0.679872 cumulative IPC: 0.478042 (Simulation time: 0 hr 14 min 42 sec) 
select_counter is 679
Heartbeat CPU 0 instructions: 40000000 cycles: 65288506 heartbeat IPC: 0.679839 cumulative IPC: 0.482819 (Simulation time: 0 hr 15 min 8 sec) 
select_counter is 643
Heartbeat CPU 0 instructions: 41000000 cycles: 66759484 heartbeat IPC: 0.67982 cumulative IPC: 0.487375 (Simulation time: 0 hr 15 min 32 sec) 
select_counter is 679
Heartbeat CPU 0 instructions: 42000000 cycles: 68230345 heartbeat IPC: 0.679874 cumulative IPC: 0.491726 (Simulation time: 0 hr 15 min 56 sec) 
select_counter is 659
Heartbeat CPU 0 instructions: 43000002 cycles: 69701210 heartbeat IPC: 0.679873 cumulative IPC: 0.495884 (Simulation time: 0 hr 16 min 21 sec) 
select_counter is 680
Heartbeat CPU 0 instructions: 44000000 cycles: 71172144 heartbeat IPC: 0.679839 cumulative IPC: 0.499863 (Simulation time: 0 hr 16 min 47 sec) 
select_counter is 708
Heartbeat CPU 0 instructions: 45000000 cycles: 72643126 heartbeat IPC: 0.679818 cumulative IPC: 0.503672 (Simulation time: 0 hr 17 min 11 sec) 
select_counter is 695
Heartbeat CPU 0 instructions: 46000003 cycles: 74113988 heartbeat IPC: 0.679875 cumulative IPC: 0.507324 (Simulation time: 0 hr 17 min 37 sec) 
select_counter is 670
Heartbeat CPU 0 instructions: 47000002 cycles: 75738347 heartbeat IPC: 0.615627 cumulative IPC: 0.509748 (Simulation time: 0 hr 18 min 2 sec) 
select_counter is 456
Heartbeat CPU 0 instructions: 48000000 cycles: 77706858 heartbeat IPC: 0.507997 cumulative IPC: 0.509702 (Simulation time: 0 hr 18 min 28 sec) 
select_counter is 867
Heartbeat CPU 0 instructions: 49000000 cycles: 80000023 heartbeat IPC: 0.436079 cumulative IPC: 0.507505 (Simulation time: 0 hr 18 min 54 sec) 
select_counter is 1020
Heartbeat CPU 0 instructions: 50000003 cycles: 82323944 heartbeat IPC: 0.430309 cumulative IPC: 0.505239 (Simulation time: 0 hr 19 min 20 sec) 
select_counter is 1016
Heartbeat CPU 0 instructions: 51000000 cycles: 84650309 heartbeat IPC: 0.429854 cumulative IPC: 0.503087 (Simulation time: 0 hr 19 min 46 sec) 
select_counter is 1015
Heartbeat CPU 0 instructions: 52000000 cycles: 86931369 heartbeat IPC: 0.438393 cumulative IPC: 0.501325 (Simulation time: 0 hr 20 min 13 sec) 
select_counter is 1021
Heartbeat CPU 0 instructions: 53000003 cycles: 89201034 heartbeat IPC: 0.440595 cumulative IPC: 0.499724 (Simulation time: 0 hr 20 min 39 sec) 
select_counter is 1016
Heartbeat CPU 0 instructions: 54000003 cycles: 91437421 heartbeat IPC: 0.44715 cumulative IPC: 0.498392 (Simulation time: 0 hr 21 min 5 sec) 
select_counter is 767
Heartbeat CPU 0 instructions: 55000002 cycles: 93663037 heartbeat IPC: 0.449313 cumulative IPC: 0.497185 (Simulation time: 0 hr 21 min 29 sec) 
select_counter is 744
Heartbeat CPU 0 instructions: 56000000 cycles: 95921038 heartbeat IPC: 0.442869 cumulative IPC: 0.495863 (Simulation time: 0 hr 21 min 55 sec) 
select_counter is 733
Heartbeat CPU 0 instructions: 57000001 cycles: 98163242 heartbeat IPC: 0.44599 cumulative IPC: 0.494686 (Simulation time: 0 hr 22 min 21 sec) 
select_counter is 701
Heartbeat CPU 0 instructions: 58000000 cycles: 100408854 heartbeat IPC: 0.445312 cumulative IPC: 0.493546 (Simulation time: 0 hr 22 min 50 sec) 
select_counter is 762
Heartbeat CPU 0 instructions: 59000000 cycles: 102641763 heartbeat IPC: 0.447846 cumulative IPC: 0.49252 (Simulation time: 0 hr 23 min 15 sec) 
select_counter is 744
Heartbeat CPU 0 instructions: 60000000 cycles: 104861808 heartbeat IPC: 0.450441 cumulative IPC: 0.491602 (Simulation time: 0 hr 23 min 43 sec) 
select_counter is 781
Heartbeat CPU 0 instructions: 61000001 cycles: 107089499 heartbeat IPC: 0.448896 cumulative IPC: 0.490686 (Simulation time: 0 hr 24 min 8 sec) 
select_counter is 750
Heartbeat CPU 0 instructions: 62000000 cycles: 109331551 heartbeat IPC: 0.44602 cumulative IPC: 0.489743 (Simulation time: 0 hr 24 min 35 sec) 
select_counter is 703
Heartbeat CPU 0 instructions: 63000001 cycles: 111533168 heartbeat IPC: 0.454212 cumulative IPC: 0.489021 (Simulation time: 0 hr 24 min 59 sec) 
select_counter is 93
Heartbeat CPU 0 instructions: 64000000 cycles: 113669711 heartbeat IPC: 0.468045 cumulative IPC: 0.488616 (Simulation time: 0 hr 25 min 23 sec) 
select_counter is 137
Heartbeat CPU 0 instructions: 65000000 cycles: 115743750 heartbeat IPC: 0.482151 cumulative IPC: 0.488497 (Simulation time: 0 hr 25 min 47 sec) 
select_counter is 956
Heartbeat CPU 0 instructions: 66000001 cycles: 117806594 heartbeat IPC: 0.484768 cumulative IPC: 0.48843 (Simulation time: 0 hr 26 min 10 sec) 
select_counter is 1020
Heartbeat CPU 0 instructions: 67000000 cycles: 119800827 heartbeat IPC: 0.501445 cumulative IPC: 0.488652 (Simulation time: 0 hr 26 min 36 sec) 
select_counter is 1018
Heartbeat CPU 0 instructions: 68000000 cycles: 121823303 heartbeat IPC: 0.494443 cumulative IPC: 0.488751 (Simulation time: 0 hr 27 min 2 sec) 
select_counter is 1022
Heartbeat CPU 0 instructions: 69000002 cycles: 123834856 heartbeat IPC: 0.497129 cumulative IPC: 0.488891 (Simulation time: 0 hr 27 min 26 sec) 
select_counter is 1022
Heartbeat CPU 0 instructions: 70000001 cycles: 125855437 heartbeat IPC: 0.494907 cumulative IPC: 0.48899 (Simulation time: 0 hr 27 min 50 sec) 
select_counter is 1020
Heartbeat CPU 0 instructions: 71000000 cycles: 127907854 heartbeat IPC: 0.48723 cumulative IPC: 0.488961 (Simulation time: 0 hr 28 min 16 sec) 
select_counter is 887
Heartbeat CPU 0 instructions: 72000000 cycles: 129935834 heartbeat IPC: 0.493102 cumulative IPC: 0.489027 (Simulation time: 0 hr 28 min 40 sec) 
select_counter is 896
Heartbeat CPU 0 instructions: 73000002 cycles: 132011953 heartbeat IPC: 0.481669 cumulative IPC: 0.488908 (Simulation time: 0 hr 29 min 4 sec) 
select_counter is 876
Heartbeat CPU 0 instructions: 74000002 cycles: 134042340 heartbeat IPC: 0.492517 cumulative IPC: 0.488964 (Simulation time: 0 hr 29 min 28 sec) 
select_counter is 924
Heartbeat CPU 0 instructions: 75000001 cycles: 136116259 heartbeat IPC: 0.482178 cumulative IPC: 0.488858 (Simulation time: 0 hr 29 min 54 sec) 
select_counter is 893
Heartbeat CPU 0 instructions: 76000000 cycles: 138162068 heartbeat IPC: 0.488804 cumulative IPC: 0.488858 (Simulation time: 0 hr 30 min 17 sec) 
select_counter is 963
Heartbeat CPU 0 instructions: 77000000 cycles: 140201521 heartbeat IPC: 0.490328 cumulative IPC: 0.48888 (Simulation time: 0 hr 30 min 43 sec) 
select_counter is 1011
Heartbeat CPU 0 instructions: 78000002 cycles: 142293287 heartbeat IPC: 0.478066 cumulative IPC: 0.488717 (Simulation time: 0 hr 31 min 8 sec) 
select_counter is 994
Heartbeat CPU 0 instructions: 79000001 cycles: 144330303 heartbeat IPC: 0.490914 cumulative IPC: 0.488749 (Simulation time: 0 hr 31 min 33 sec) 
select_counter is 1015
Heartbeat CPU 0 instructions: 80000000 cycles: 146410831 heartbeat IPC: 0.480647 cumulative IPC: 0.488631 (Simulation time: 0 hr 31 min 58 sec) 
select_counter is 988
Heartbeat CPU 0 instructions: 81000000 cycles: 148452839 heartbeat IPC: 0.489714 cumulative IPC: 0.488646 (Simulation time: 0 hr 32 min 22 sec) 
select_counter is 988
Heartbeat CPU 0 instructions: 82000000 cycles: 150522845 heartbeat IPC: 0.48309 cumulative IPC: 0.488568 (Simulation time: 0 hr 32 min 46 sec) 
select_counter is 946
Heartbeat CPU 0 instructions: 83000001 cycles: 152833197 heartbeat IPC: 0.432835 cumulative IPC: 0.487708 (Simulation time: 0 hr 33 min 14 sec) 
select_counter is 126
Heartbeat CPU 0 instructions: 84000000 cycles: 155260778 heartbeat IPC: 0.411932 cumulative IPC: 0.486499 (Simulation time: 0 hr 33 min 40 sec) 
select_counter is 404
Heartbeat CPU 0 instructions: 85000001 cycles: 157742963 heartbeat IPC: 0.402871 cumulative IPC: 0.485156 (Simulation time: 0 hr 34 min 5 sec) 
select_counter is 406
Heartbeat CPU 0 instructions: 86000001 cycles: 160152105 heartbeat IPC: 0.415086 cumulative IPC: 0.484081 (Simulation time: 0 hr 34 min 31 sec) 
select_counter is 676
Heartbeat CPU 0 instructions: 87000003 cycles: 162518172 heartbeat IPC: 0.422643 cumulative IPC: 0.483168 (Simulation time: 0 hr 34 min 58 sec) 
select_counter is 987
Heartbeat CPU 0 instructions: 88000000 cycles: 164851280 heartbeat IPC: 0.428612 cumulative IPC: 0.482381 (Simulation time: 0 hr 35 min 24 sec) 
select_counter is 1021
Heartbeat CPU 0 instructions: 89000001 cycles: 167238155 heartbeat IPC: 0.418958 cumulative IPC: 0.481459 (Simulation time: 0 hr 35 min 50 sec) 
select_counter is 969
Heartbeat CPU 0 instructions: 90000000 cycles: 169616543 heartbeat IPC: 0.420452 cumulative IPC: 0.480587 (Simulation time: 0 hr 36 min 16 sec) 
select_counter is 922
Heartbeat CPU 0 instructions: 91000002 cycles: 171998795 heartbeat IPC: 0.419772 cumulative IPC: 0.479729 (Simulation time: 0 hr 36 min 41 sec) 
select_counter is 897
Heartbeat CPU 0 instructions: 92000000 cycles: 174377806 heartbeat IPC: 0.420342 cumulative IPC: 0.478904 (Simulation time: 0 hr 37 min 8 sec) 
select_counter is 932
Heartbeat CPU 0 instructions: 93000003 cycles: 176765392 heartbeat IPC: 0.418834 cumulative IPC: 0.478078 (Simulation time: 0 hr 37 min 35 sec) 
select_counter is 973
Heartbeat CPU 0 instructions: 94000000 cycles: 179166314 heartbeat IPC: 0.416505 cumulative IPC: 0.477238 (Simulation time: 0 hr 38 min 0 sec) 
select_counter is 998
Heartbeat CPU 0 instructions: 95000002 cycles: 181575936 heartbeat IPC: 0.415004 cumulative IPC: 0.476397 (Simulation time: 0 hr 38 min 25 sec) 
select_counter is 1012
Heartbeat CPU 0 instructions: 96000000 cycles: 183994034 heartbeat IPC: 0.413547 cumulative IPC: 0.475557 (Simulation time: 0 hr 38 min 51 sec) 
select_counter is 1017
Heartbeat CPU 0 instructions: 97000001 cycles: 186396690 heartbeat IPC: 0.416206 cumulative IPC: 0.474779 (Simulation time: 0 hr 39 min 16 sec) 
select_counter is 985
Heartbeat CPU 0 instructions: 98000002 cycles: 188799527 heartbeat IPC: 0.416175 cumulative IPC: 0.47402 (Simulation time: 0 hr 39 min 41 sec) 
select_counter is 946
Heartbeat CPU 0 instructions: 99000002 cycles: 190384693 heartbeat IPC: 0.630849 cumulative IPC: 0.475348 (Simulation time: 0 hr 40 min 5 sec) 
select_counter is 307
Heartbeat CPU 0 instructions: 100000000 cycles: 191849853 heartbeat IPC: 0.682518 cumulative IPC: 0.476957 (Simulation time: 0 hr 40 min 28 sec) 
select_counter is 1020
Heartbeat CPU 0 instructions: 101000000 cycles: 193278089 heartbeat IPC: 0.700164 cumulative IPC: 0.478633 (Simulation time: 0 hr 40 min 54 sec) 
select_counter is 1017
Heartbeat CPU 0 instructions: 102000003 cycles: 194705034 heartbeat IPC: 0.7008 cumulative IPC: 0.480288 (Simulation time: 0 hr 41 min 18 sec) 
select_counter is 1023
Heartbeat CPU 0 instructions: 103000002 cycles: 196126777 heartbeat IPC: 0.703361 cumulative IPC: 0.481932 (Simulation time: 0 hr 41 min 42 sec) 
select_counter is 1023
Heartbeat CPU 0 instructions: 104000000 cycles: 197552664 heartbeat IPC: 0.701316 cumulative IPC: 0.483541 (Simulation time: 0 hr 42 min 5 sec) 
select_counter is 1023
Heartbeat CPU 0 instructions: 105000000 cycles: 198967392 heartbeat IPC: 0.70685 cumulative IPC: 0.485154 (Simulation time: 0 hr 42 min 29 sec) 
select_counter is 1017
Heartbeat CPU 0 instructions: 106000001 cycles: 200389885 heartbeat IPC: 0.702992 cumulative IPC: 0.486725 (Simulation time: 0 hr 42 min 51 sec) 
select_counter is 994
Heartbeat CPU 0 instructions: 107000000 cycles: 201814578 heartbeat IPC: 0.701905 cumulative IPC: 0.488269 (Simulation time: 0 hr 43 min 13 sec) 
select_counter is 961
Heartbeat CPU 0 instructions: 108000000 cycles: 203240548 heartbeat IPC: 0.701277 cumulative IPC: 0.489787 (Simulation time: 0 hr 43 min 38 sec) 
select_counter is 998
Heartbeat CPU 0 instructions: 109000001 cycles: 204666548 heartbeat IPC: 0.701263 cumulative IPC: 0.491283 (Simulation time: 0 hr 44 min 3 sec) 
select_counter is 1022
Heartbeat CPU 0 instructions: 110000000 cycles: 206093121 heartbeat IPC: 0.70098 cumulative IPC: 0.492757 (Simulation time: 0 hr 44 min 25 sec) 
select_counter is 1003
Finished CPU 0 instructions: 100000001 cycles: 202939671 cummulative IPC: 0.492757 (Simulation time: 0 hr 44 min 25 sec) 

ChampSim completed all CPUs

Region of Interest Statistics

CPU 0 cummulative IPC: 0.492757 instructions: 100000001 cycles: 202939671
LLC TOTAL     ACCESS:    4047262  HIT:     180037  MISS:    3867225
LLC LOAD      ACCESS:     834192  HIT:      25844  MISS:     808348
LLC RFO       ACCESS:         24  HIT:          8  MISS:         16
LLC PREFETCH  ACCESS:    2172610  HIT:      77639  MISS:    2094971
LLC WRITEBACK ACCESS:    1040436  HIT:      76546  MISS:     963890
Ship samples: size is 64
18, 48, 74, 89, 132, 173, 205, 223, 255, 309, 315, 344, 392, 427, 453, 474, 511, 564, 585, 589, 647, 679, 704, 715, 776, 804, 831, 855, 899, 932, 947, 968, 1026, 1063, 1081, 1110, 1145, 1190, 1204, 1232, 1273, 1317, 1326, 1345, 1386, 1438, 1459, 1488, 1517, 1563, 1582, 1599, 1652, 1692, 1706, 1738, 1783, 1825, 1836, 1862, 1891, 1950, 1960, 1990, 
Ship duel samples: size is 96
18, 33, 48, 74, 89, 121, 132, 156, 173, 205, 223, 241, 255, 280, 309, 315, 344, 375, 392, 415, 427, 453, 474, 489, 511, 530, 564, 585, 589, 628, 647, 657, 679, 704, 715, 746, 776, 783, 804, 831, 855, 868, 899, 910, 932, 947, 968, 988, 1026, 1039, 1063, 1081, 1110, 1126, 1145, 1169, 1190, 1204, 1232, 1249, 1273, 1301, 1317, 1326, 1345, 1370, 1386, 1412, 1438, 1459, 1488, 1508, 1517, 1537, 1563, 1582, 1599, 1621, 1652, 1665, 1692, 1706, 1738, 1748, 1783, 1785, 1825, 1836, 1862, 1888, 1891, 1928, 1950, 1960, 1990, 1995, 
Lime duel samples: size is 96
0, 26, 43, 75, 97, 113, 145, 166, 170, 197, 220, 245, 267, 285, 310, 317, 345, 365, 394, 401, 437, 444, 477, 497, 521, 531, 566, 574, 595, 618, 630, 659, 686, 694, 732, 741, 763, 793, 800, 828, 842, 874, 882, 920, 926, 961, 984, 996, 1011, 1042, 1061, 1089, 1106, 1119, 1144, 1165, 1188, 1206, 1235, 1256, 1276, 1298, 1306, 1330, 1360, 1366, 1399, 1409, 1444, 1463, 1481, 1507, 1518, 1543, 1566, 1581, 1601, 1624, 1653, 1666, 1700, 1704, 1724, 1756, 1771, 1797, 1806, 1846, 1867, 1884, 1904, 1925, 1943, 1971, 1974, 1999, 
Lime samples: size is 15
0, 145, 267, 394, 521, 630, 763, 882, 1011, 1144, 1276, 1399, 1518, 1653, 1771, 
Insertion Distribution: 
	LOAD 7479 0 0 0 0 0 11228 96782 
	RFO 0 0 0 0 0 0 0 0 
	PREF 0 8949 0 0 0 0 25948 348570 
	WRITEBACK 0 0 0 0 0 0 0 146207 
Total Prefetch Downgrades: 3825
