
*** ChampSim Multicore Out-of-Order Simulator ***

Warmup Instructions: 10000000
Simulation Instructions: 100000000
Configuration: 2
Number of CPUs: 1
LLC sets: 2048
LLC ways: 16
Off-chip DRAM Channels: 1 Width: 64-bit Data Rate: 1600 MT/s

CPU 0 runs /datasets/cs240c-wi22-a00-public/data/Assignment2-gz/perlbench_105B.trace.gz
CPU 0 L1D next line prefetcher
CPU 0 L2C IP-based stride prefetcher
Heartbeat CPU 0 instructions: 1000000 cycles: 578016 heartbeat IPC: 1.73006 cumulative IPC: 1.73006 (Simulation time: 0 hr 0 min 26 sec) 
select_counter is 506
Heartbeat CPU 0 instructions: 2000001 cycles: 1164321 heartbeat IPC: 1.7056 cumulative IPC: 1.71774 (Simulation time: 0 hr 0 min 52 sec) 
select_counter is 506
Heartbeat CPU 0 instructions: 3000001 cycles: 1726557 heartbeat IPC: 1.77861 cumulative IPC: 1.73756 (Simulation time: 0 hr 1 min 16 sec) 
select_counter is 506
Heartbeat CPU 0 instructions: 4000000 cycles: 2305993 heartbeat IPC: 1.72581 cumulative IPC: 1.73461 (Simulation time: 0 hr 1 min 42 sec) 
select_counter is 507
Heartbeat CPU 0 instructions: 5000003 cycles: 2884260 heartbeat IPC: 1.72931 cumulative IPC: 1.73355 (Simulation time: 0 hr 2 min 8 sec) 
select_counter is 508
Heartbeat CPU 0 instructions: 6000003 cycles: 3447519 heartbeat IPC: 1.77538 cumulative IPC: 1.74038 (Simulation time: 0 hr 2 min 32 sec) 
select_counter is 509
Heartbeat CPU 0 instructions: 7000000 cycles: 4019987 heartbeat IPC: 1.74682 cumulative IPC: 1.7413 (Simulation time: 0 hr 2 min 57 sec) 
select_counter is 509
Heartbeat CPU 0 instructions: 8000000 cycles: 4598049 heartbeat IPC: 1.72992 cumulative IPC: 1.73987 (Simulation time: 0 hr 3 min 25 sec) 
select_counter is 508
Heartbeat CPU 0 instructions: 9000000 cycles: 5176571 heartbeat IPC: 1.72854 cumulative IPC: 1.7386 (Simulation time: 0 hr 3 min 49 sec) 
select_counter is 509
Heartbeat CPU 0 instructions: 10000002 cycles: 5745489 heartbeat IPC: 1.75773 cumulative IPC: 1.7405 (Simulation time: 0 hr 4 min 14 sec) 
select_counter is 509

Warmup complete CPU 0 instructions: 10000002 cycles: 5745489 (Simulation time: 0 hr 4 min 14 sec) 

Heartbeat CPU 0 instructions: 11000002 cycles: 8079760 heartbeat IPC: 0.428399 cumulative IPC: 0.428399 (Simulation time: 0 hr 4 min 52 sec) 
select_counter is 506
Heartbeat CPU 0 instructions: 12000000 cycles: 10435599 heartbeat IPC: 0.424476 cumulative IPC: 0.426429 (Simulation time: 0 hr 5 min 27 sec) 
select_counter is 505
Heartbeat CPU 0 instructions: 13000000 cycles: 12866632 heartbeat IPC: 0.411348 cumulative IPC: 0.42128 (Simulation time: 0 hr 6 min 4 sec) 
select_counter is 505
Heartbeat CPU 0 instructions: 14000000 cycles: 15244606 heartbeat IPC: 0.420526 cumulative IPC: 0.421092 (Simulation time: 0 hr 6 min 42 sec) 
select_counter is 509
Heartbeat CPU 0 instructions: 15000000 cycles: 17595618 heartbeat IPC: 0.425349 cumulative IPC: 0.421936 (Simulation time: 0 hr 7 min 19 sec) 
select_counter is 508
Heartbeat CPU 0 instructions: 16000000 cycles: 19976093 heartbeat IPC: 0.420084 cumulative IPC: 0.421626 (Simulation time: 0 hr 7 min 55 sec) 
select_counter is 508
Heartbeat CPU 0 instructions: 17000003 cycles: 22368505 heartbeat IPC: 0.417989 cumulative IPC: 0.421103 (Simulation time: 0 hr 8 min 31 sec) 
select_counter is 508
Heartbeat CPU 0 instructions: 18000000 cycles: 24612402 heartbeat IPC: 0.445652 cumulative IPC: 0.424023 (Simulation time: 0 hr 9 min 9 sec) 
select_counter is 509
Heartbeat CPU 0 instructions: 19000000 cycles: 27117282 heartbeat IPC: 0.399221 cumulative IPC: 0.421116 (Simulation time: 0 hr 9 min 43 sec) 
select_counter is 509
Heartbeat CPU 0 instructions: 20000000 cycles: 29620732 heartbeat IPC: 0.399449 cumulative IPC: 0.418844 (Simulation time: 0 hr 10 min 21 sec) 
select_counter is 509
Heartbeat CPU 0 instructions: 21000001 cycles: 32122235 heartbeat IPC: 0.39976 cumulative IPC: 0.417034 (Simulation time: 0 hr 10 min 57 sec) 
select_counter is 509
Heartbeat CPU 0 instructions: 22000001 cycles: 34618056 heartbeat IPC: 0.40067 cumulative IPC: 0.415619 (Simulation time: 0 hr 11 min 33 sec) 
select_counter is 509
Heartbeat CPU 0 instructions: 23000000 cycles: 37109945 heartbeat IPC: 0.401302 cumulative IPC: 0.414482 (Simulation time: 0 hr 12 min 12 sec) 
select_counter is 509
Heartbeat CPU 0 instructions: 24000000 cycles: 39592832 heartbeat IPC: 0.402757 cumulative IPC: 0.413622 (Simulation time: 0 hr 12 min 47 sec) 
select_counter is 509
Heartbeat CPU 0 instructions: 25000001 cycles: 42055416 heartbeat IPC: 0.406078 cumulative IPC: 0.41311 (Simulation time: 0 hr 13 min 25 sec) 
select_counter is 509
Heartbeat CPU 0 instructions: 26000001 cycles: 44327979 heartbeat IPC: 0.440032 cumulative IPC: 0.414696 (Simulation time: 0 hr 14 min 1 sec) 
select_counter is 510
Heartbeat CPU 0 instructions: 27000003 cycles: 46822809 heartbeat IPC: 0.40083 cumulative IPC: 0.413854 (Simulation time: 0 hr 14 min 38 sec) 
select_counter is 510
Heartbeat CPU 0 instructions: 28000000 cycles: 49326095 heartbeat IPC: 0.399474 cumulative IPC: 0.413028 (Simulation time: 0 hr 15 min 12 sec) 
select_counter is 510
Heartbeat CPU 0 instructions: 29000001 cycles: 51827756 heartbeat IPC: 0.399735 cumulative IPC: 0.412306 (Simulation time: 0 hr 15 min 49 sec) 
select_counter is 510
Heartbeat CPU 0 instructions: 30000001 cycles: 54325160 heartbeat IPC: 0.400416 cumulative IPC: 0.411695 (Simulation time: 0 hr 16 min 25 sec) 
select_counter is 510
Heartbeat CPU 0 instructions: 31000000 cycles: 56816976 heartbeat IPC: 0.401313 cumulative IPC: 0.411188 (Simulation time: 0 hr 17 min 1 sec) 
select_counter is 510
Heartbeat CPU 0 instructions: 32000000 cycles: 59302103 heartbeat IPC: 0.402394 cumulative IPC: 0.41078 (Simulation time: 0 hr 17 min 37 sec) 
select_counter is 510
Heartbeat CPU 0 instructions: 33000001 cycles: 61770175 heartbeat IPC: 0.405175 cumulative IPC: 0.410533 (Simulation time: 0 hr 18 min 11 sec) 
select_counter is 510
Heartbeat CPU 0 instructions: 34000002 cycles: 64180929 heartbeat IPC: 0.414808 cumulative IPC: 0.41071 (Simulation time: 0 hr 18 min 47 sec) 
select_counter is 510
Heartbeat CPU 0 instructions: 35000002 cycles: 66644069 heartbeat IPC: 0.405986 cumulative IPC: 0.410519 (Simulation time: 0 hr 19 min 21 sec) 
select_counter is 502
Heartbeat CPU 0 instructions: 36000000 cycles: 69147978 heartbeat IPC: 0.399375 cumulative IPC: 0.410078 (Simulation time: 0 hr 19 min 54 sec) 
select_counter is 429
Heartbeat CPU 0 instructions: 37000001 cycles: 72147726 heartbeat IPC: 0.333362 cumulative IPC: 0.406613 (Simulation time: 0 hr 20 min 34 sec) 
select_counter is 381
Heartbeat CPU 0 instructions: 38000000 cycles: 74779623 heartbeat IPC: 0.379954 cumulative IPC: 0.405596 (Simulation time: 0 hr 21 min 9 sec) 
select_counter is 355
Heartbeat CPU 0 instructions: 39000000 cycles: 77555722 heartbeat IPC: 0.360218 cumulative IPC: 0.403842 (Simulation time: 0 hr 21 min 41 sec) 
select_counter is 314
Heartbeat CPU 0 instructions: 40000000 cycles: 80205477 heartbeat IPC: 0.377393 cumulative IPC: 0.402901 (Simulation time: 0 hr 22 min 14 sec) 
select_counter is 245
Heartbeat CPU 0 instructions: 41000000 cycles: 82841519 heartbeat IPC: 0.379357 cumulative IPC: 0.402096 (Simulation time: 0 hr 22 min 46 sec) 
select_counter is 186
Heartbeat CPU 0 instructions: 42000002 cycles: 85475664 heartbeat IPC: 0.379631 cumulative IPC: 0.401354 (Simulation time: 0 hr 23 min 21 sec) 
select_counter is 128
Heartbeat CPU 0 instructions: 43000000 cycles: 88122425 heartbeat IPC: 0.37782 cumulative IPC: 0.400598 (Simulation time: 0 hr 23 min 54 sec) 
select_counter is 46
Heartbeat CPU 0 instructions: 44000000 cycles: 90741605 heartbeat IPC: 0.381799 cumulative IPC: 0.400018 (Simulation time: 0 hr 24 min 28 sec) 
select_counter is 1006
Heartbeat CPU 0 instructions: 45000001 cycles: 93379055 heartbeat IPC: 0.379154 cumulative IPC: 0.39939 (Simulation time: 0 hr 25 min 0 sec) 
select_counter is 967
Heartbeat CPU 0 instructions: 46000003 cycles: 95981848 heartbeat IPC: 0.384203 cumulative IPC: 0.398952 (Simulation time: 0 hr 25 min 36 sec) 
select_counter is 944
Heartbeat CPU 0 instructions: 47000002 cycles: 98590766 heartbeat IPC: 0.3833 cumulative IPC: 0.398512 (Simulation time: 0 hr 26 min 10 sec) 
select_counter is 882
Heartbeat CPU 0 instructions: 48000000 cycles: 101183716 heartbeat IPC: 0.38566 cumulative IPC: 0.398163 (Simulation time: 0 hr 26 min 43 sec) 
select_counter is 820
Heartbeat CPU 0 instructions: 49000002 cycles: 103781454 heartbeat IPC: 0.384951 cumulative IPC: 0.397813 (Simulation time: 0 hr 27 min 19 sec) 
select_counter is 754
Heartbeat CPU 0 instructions: 50000002 cycles: 106383584 heartbeat IPC: 0.384301 cumulative IPC: 0.397464 (Simulation time: 0 hr 27 min 53 sec) 
select_counter is 681
Heartbeat CPU 0 instructions: 51000003 cycles: 108993210 heartbeat IPC: 0.383197 cumulative IPC: 0.397103 (Simulation time: 0 hr 28 min 28 sec) 
select_counter is 611
Heartbeat CPU 0 instructions: 52000000 cycles: 111583083 heartbeat IPC: 0.386118 cumulative IPC: 0.396834 (Simulation time: 0 hr 29 min 4 sec) 
select_counter is 549
Heartbeat CPU 0 instructions: 53000000 cycles: 114162272 heartbeat IPC: 0.387719 cumulative IPC: 0.396618 (Simulation time: 0 hr 29 min 37 sec) 
select_counter is 488
Heartbeat CPU 0 instructions: 54000000 cycles: 116780350 heartbeat IPC: 0.38196 cumulative IPC: 0.396272 (Simulation time: 0 hr 30 min 12 sec) 
select_counter is 415
Heartbeat CPU 0 instructions: 55000003 cycles: 119343105 heartbeat IPC: 0.390206 cumulative IPC: 0.396135 (Simulation time: 0 hr 30 min 45 sec) 
select_counter is 367
Heartbeat CPU 0 instructions: 56000000 cycles: 121723293 heartbeat IPC: 0.420134 cumulative IPC: 0.396628 (Simulation time: 0 hr 31 min 21 sec) 
select_counter is 347
Heartbeat CPU 0 instructions: 57000002 cycles: 123998577 heartbeat IPC: 0.439506 cumulative IPC: 0.397453 (Simulation time: 0 hr 31 min 58 sec) 
select_counter is 345
Heartbeat CPU 0 instructions: 58000001 cycles: 125321458 heartbeat IPC: 0.755925 cumulative IPC: 0.401418 (Simulation time: 0 hr 32 min 26 sec) 
select_counter is 324
Heartbeat CPU 0 instructions: 59000002 cycles: 127554754 heartbeat IPC: 0.447769 cumulative IPC: 0.402268 (Simulation time: 0 hr 32 min 59 sec) 
select_counter is 301
Heartbeat CPU 0 instructions: 60000000 cycles: 129903539 heartbeat IPC: 0.425751 cumulative IPC: 0.402712 (Simulation time: 0 hr 33 min 37 sec) 
select_counter is 300
Heartbeat CPU 0 instructions: 61000002 cycles: 132353029 heartbeat IPC: 0.408249 cumulative IPC: 0.40282 (Simulation time: 0 hr 34 min 13 sec) 
select_counter is 300
Heartbeat CPU 0 instructions: 62000000 cycles: 134719317 heartbeat IPC: 0.422602 cumulative IPC: 0.403183 (Simulation time: 0 hr 34 min 52 sec) 
select_counter is 300
Heartbeat CPU 0 instructions: 63000000 cycles: 137081834 heartbeat IPC: 0.423277 cumulative IPC: 0.403544 (Simulation time: 0 hr 35 min 29 sec) 
select_counter is 300
Heartbeat CPU 0 instructions: 64000000 cycles: 139501328 heartbeat IPC: 0.41331 cumulative IPC: 0.403721 (Simulation time: 0 hr 36 min 8 sec) 
select_counter is 300
Heartbeat CPU 0 instructions: 65000003 cycles: 141825534 heartbeat IPC: 0.430256 cumulative IPC: 0.404174 (Simulation time: 0 hr 36 min 46 sec) 
select_counter is 299
Heartbeat CPU 0 instructions: 66000002 cycles: 144168767 heartbeat IPC: 0.42676 cumulative IPC: 0.404556 (Simulation time: 0 hr 37 min 26 sec) 
select_counter is 298
Heartbeat CPU 0 instructions: 67000001 cycles: 146524167 heartbeat IPC: 0.424556 cumulative IPC: 0.404891 (Simulation time: 0 hr 38 min 1 sec) 
select_counter is 298
Heartbeat CPU 0 instructions: 68000000 cycles: 148972358 heartbeat IPC: 0.408464 cumulative IPC: 0.404952 (Simulation time: 0 hr 38 min 39 sec) 
select_counter is 298
Heartbeat CPU 0 instructions: 69000001 cycles: 151324640 heartbeat IPC: 0.42512 cumulative IPC: 0.405278 (Simulation time: 0 hr 39 min 14 sec) 
select_counter is 298
Heartbeat CPU 0 instructions: 70000000 cycles: 153740478 heartbeat IPC: 0.413935 cumulative IPC: 0.405419 (Simulation time: 0 hr 39 min 48 sec) 
select_counter is 298
Heartbeat CPU 0 instructions: 71000000 cycles: 156126768 heartbeat IPC: 0.419061 cumulative IPC: 0.405636 (Simulation time: 0 hr 40 min 22 sec) 
select_counter is 298
Heartbeat CPU 0 instructions: 72000000 cycles: 158455753 heartbeat IPC: 0.429372 cumulative IPC: 0.405998 (Simulation time: 0 hr 40 min 57 sec) 
select_counter is 297
Heartbeat CPU 0 instructions: 73000000 cycles: 160788436 heartbeat IPC: 0.428691 cumulative IPC: 0.406339 (Simulation time: 0 hr 41 min 31 sec) 
select_counter is 295
Heartbeat CPU 0 instructions: 74000002 cycles: 163173575 heartbeat IPC: 0.419264 cumulative IPC: 0.406535 (Simulation time: 0 hr 42 min 6 sec) 
select_counter is 295
Heartbeat CPU 0 instructions: 75000000 cycles: 165597024 heartbeat IPC: 0.412634 cumulative IPC: 0.406627 (Simulation time: 0 hr 42 min 40 sec) 
select_counter is 295
Heartbeat CPU 0 instructions: 76000000 cycles: 167956306 heartbeat IPC: 0.423858 cumulative IPC: 0.406878 (Simulation time: 0 hr 43 min 12 sec) 
select_counter is 295
Heartbeat CPU 0 instructions: 77000000 cycles: 170390801 heartbeat IPC: 0.410763 cumulative IPC: 0.406935 (Simulation time: 0 hr 43 min 45 sec) 
select_counter is 295
Heartbeat CPU 0 instructions: 78000002 cycles: 172755882 heartbeat IPC: 0.422819 cumulative IPC: 0.40716 (Simulation time: 0 hr 44 min 16 sec) 
select_counter is 294
Heartbeat CPU 0 instructions: 79000001 cycles: 175092364 heartbeat IPC: 0.427993 cumulative IPC: 0.407448 (Simulation time: 0 hr 44 min 45 sec) 
select_counter is 294
Heartbeat CPU 0 instructions: 80000000 cycles: 177423597 heartbeat IPC: 0.428957 cumulative IPC: 0.40774 (Simulation time: 0 hr 45 min 13 sec) 
select_counter is 294
Heartbeat CPU 0 instructions: 81000000 cycles: 179847281 heartbeat IPC: 0.412595 cumulative IPC: 0.407807 (Simulation time: 0 hr 45 min 41 sec) 
select_counter is 294
Heartbeat CPU 0 instructions: 82000000 cycles: 182210504 heartbeat IPC: 0.423151 cumulative IPC: 0.408013 (Simulation time: 0 hr 46 min 8 sec) 
select_counter is 290
Heartbeat CPU 0 instructions: 83000002 cycles: 184531389 heartbeat IPC: 0.430871 cumulative IPC: 0.40831 (Simulation time: 0 hr 46 min 34 sec) 
select_counter is 290
Heartbeat CPU 0 instructions: 84000000 cycles: 186953941 heartbeat IPC: 0.412787 cumulative IPC: 0.408369 (Simulation time: 0 hr 46 min 58 sec) 
select_counter is 290
Heartbeat CPU 0 instructions: 85000000 cycles: 189328494 heartbeat IPC: 0.421132 cumulative IPC: 0.408535 (Simulation time: 0 hr 47 min 21 sec) 
select_counter is 289
Heartbeat CPU 0 instructions: 86000000 cycles: 191678148 heartbeat IPC: 0.425595 cumulative IPC: 0.40875 (Simulation time: 0 hr 47 min 44 sec) 
select_counter is 289
Heartbeat CPU 0 instructions: 87000001 cycles: 194124467 heartbeat IPC: 0.408778 cumulative IPC: 0.40875 (Simulation time: 0 hr 48 min 7 sec) 
select_counter is 289
Heartbeat CPU 0 instructions: 88000000 cycles: 196490121 heartbeat IPC: 0.422716 cumulative IPC: 0.408924 (Simulation time: 0 hr 48 min 28 sec) 
select_counter is 289
Heartbeat CPU 0 instructions: 89000002 cycles: 198815456 heartbeat IPC: 0.430046 cumulative IPC: 0.409178 (Simulation time: 0 hr 48 min 49 sec) 
select_counter is 289
Heartbeat CPU 0 instructions: 90000002 cycles: 201179250 heartbeat IPC: 0.423049 cumulative IPC: 0.409346 (Simulation time: 0 hr 49 min 9 sec) 
select_counter is 289
Heartbeat CPU 0 instructions: 91000003 cycles: 203595813 heartbeat IPC: 0.413811 cumulative IPC: 0.4094 (Simulation time: 0 hr 49 min 30 sec) 
select_counter is 289
Heartbeat CPU 0 instructions: 92000000 cycles: 205954680 heartbeat IPC: 0.423931 cumulative IPC: 0.409572 (Simulation time: 0 hr 49 min 50 sec) 
select_counter is 289
Heartbeat CPU 0 instructions: 93000001 cycles: 208301420 heartbeat IPC: 0.426123 cumulative IPC: 0.409763 (Simulation time: 0 hr 50 min 10 sec) 
select_counter is 289
Heartbeat CPU 0 instructions: 94000002 cycles: 210753882 heartbeat IPC: 0.407754 cumulative IPC: 0.409739 (Simulation time: 0 hr 50 min 27 sec) 
select_counter is 289
Heartbeat CPU 0 instructions: 95000000 cycles: 213114714 heartbeat IPC: 0.423579 cumulative IPC: 0.409897 (Simulation time: 0 hr 50 min 45 sec) 
select_counter is 289
Heartbeat CPU 0 instructions: 96000000 cycles: 215438005 heartbeat IPC: 0.430424 cumulative IPC: 0.410124 (Simulation time: 0 hr 51 min 1 sec) 
select_counter is 289
Heartbeat CPU 0 instructions: 97000000 cycles: 217824836 heartbeat IPC: 0.418966 cumulative IPC: 0.410224 (Simulation time: 0 hr 51 min 16 sec) 
select_counter is 290
Heartbeat CPU 0 instructions: 98000001 cycles: 220224849 heartbeat IPC: 0.416665 cumulative IPC: 0.410296 (Simulation time: 0 hr 51 min 31 sec) 
select_counter is 290
Heartbeat CPU 0 instructions: 99000002 cycles: 222583589 heartbeat IPC: 0.423956 cumulative IPC: 0.410444 (Simulation time: 0 hr 51 min 45 sec) 
select_counter is 289
Heartbeat CPU 0 instructions: 100000000 cycles: 224935933 heartbeat IPC: 0.425107 cumulative IPC: 0.410602 (Simulation time: 0 hr 51 min 58 sec) 
select_counter is 286
Heartbeat CPU 0 instructions: 101000000 cycles: 227351385 heartbeat IPC: 0.414001 cumulative IPC: 0.410639 (Simulation time: 0 hr 52 min 10 sec) 
select_counter is 286
Heartbeat CPU 0 instructions: 102000000 cycles: 229584148 heartbeat IPC: 0.447876 cumulative IPC: 0.41101 (Simulation time: 0 hr 52 min 22 sec) 
select_counter is 285
Heartbeat CPU 0 instructions: 103000001 cycles: 232088748 heartbeat IPC: 0.399266 cumulative IPC: 0.41088 (Simulation time: 0 hr 52 min 34 sec) 
select_counter is 285
Heartbeat CPU 0 instructions: 104000000 cycles: 234591268 heartbeat IPC: 0.399597 cumulative IPC: 0.410757 (Simulation time: 0 hr 52 min 45 sec) 
select_counter is 285
Heartbeat CPU 0 instructions: 105000000 cycles: 237091141 heartbeat IPC: 0.40002 cumulative IPC: 0.410641 (Simulation time: 0 hr 52 min 57 sec) 
select_counter is 285
Heartbeat CPU 0 instructions: 106000000 cycles: 239587346 heartbeat IPC: 0.400608 cumulative IPC: 0.410534 (Simulation time: 0 hr 53 min 8 sec) 
select_counter is 285
Heartbeat CPU 0 instructions: 107000001 cycles: 242077938 heartbeat IPC: 0.401511 cumulative IPC: 0.410439 (Simulation time: 0 hr 53 min 19 sec) 
select_counter is 285
Heartbeat CPU 0 instructions: 108000000 cycles: 244558344 heartbeat IPC: 0.403159 cumulative IPC: 0.410363 (Simulation time: 0 hr 53 min 28 sec) 
select_counter is 285
Heartbeat CPU 0 instructions: 109000002 cycles: 247014493 heartbeat IPC: 0.407142 cumulative IPC: 0.41033 (Simulation time: 0 hr 53 min 35 sec) 
select_counter is 285
Heartbeat CPU 0 instructions: 110000000 cycles: 249334015 heartbeat IPC: 0.431122 cumulative IPC: 0.410528 (Simulation time: 0 hr 53 min 40 sec) 
select_counter is 285
Finished CPU 0 instructions: 100000000 cycles: 243588552 cummulative IPC: 0.410528 (Simulation time: 0 hr 53 min 40 sec) 

ChampSim completed all CPUs

Region of Interest Statistics

CPU 0 cummulative IPC: 0.410528 instructions: 100000000 cycles: 243588552
LLC TOTAL     ACCESS:     157865  HIT:     131940  MISS:      25925
LLC LOAD      ACCESS:      71023  HIT:      61745  MISS:       9278
LLC RFO       ACCESS:      11273  HIT:       5610  MISS:       5663
LLC PREFETCH  ACCESS:      50716  HIT:      40090  MISS:      10626
LLC WRITEBACK ACCESS:      24853  HIT:      24495  MISS:        358
Ship samples: size is 64
18, 44, 63, 102, 143, 187, 201, 218, 265, 295, 320, 342, 387, 430, 453, 474, 523, 551, 578, 593, 638, 682, 711, 734, 763, 803, 820, 841, 889, 941, 952, 977, 1017, 1051, 1085, 1106, 1149, 1188, 1212, 1219, 1277, 1311, 1328, 1364, 1388, 1439, 1455, 1474, 1523, 1568, 1583, 1597, 1645, 1691, 1709, 1728, 1766, 1820, 1831, 1849, 1904, 1937, 1965, 1982, 
Ship duel samples: size is 96
18, 39, 44, 63, 102, 114, 143, 164, 187, 201, 218, 235, 265, 283, 295, 320, 342, 358, 387, 400, 430, 453, 474, 483, 523, 527, 551, 578, 593, 615, 638, 652, 682, 711, 734, 742, 763, 779, 803, 820, 841, 871, 889, 904, 941, 952, 977, 993, 1017, 1034, 1051, 1085, 1106, 1117, 1149, 1155, 1188, 1212, 1219, 1254, 1277, 1295, 1311, 1328, 1364, 1365, 1388, 1412, 1439, 1455, 1474, 1498, 1523, 1546, 1568, 1583, 1597, 1634, 1645, 1672, 1691, 1709, 1728, 1744, 1766, 1792, 1820, 1831, 1849, 1877, 1904, 1916, 1937, 1965, 1982, 2002, 
Lime duel samples: size is 96
4, 41, 56, 66, 101, 122, 141, 167, 174, 208, 213, 244, 267, 292, 301, 331, 345, 364, 384, 401, 422, 452, 468, 500, 515, 544, 554, 567, 601, 612, 631, 666, 675, 708, 732, 755, 765, 788, 815, 835, 847, 861, 888, 905, 943, 958, 982, 992, 1027, 1031, 1058, 1071, 1103, 1127, 1150, 1175, 1186, 1198, 1238, 1241, 1264, 1281, 1319, 1330, 1357, 1378, 1391, 1408, 1431, 1450, 1485, 1501, 1532, 1534, 1566, 1593, 1608, 1623, 1639, 1669, 1688, 1710, 1731, 1760, 1764, 1789, 1822, 1837, 1853, 1882, 1901, 1918, 1945, 1960, 1987, 1998, 
Lime samples: size is 15
4, 141, 267, 384, 515, 631, 765, 888, 1027, 1150, 1264, 1391, 1532, 1639, 1764, 
Insertion Distribution: 
	LOAD 386 0 0 0 0 0 8793 33 
	RFO 38 0 0 0 0 0 5315 29 
	PREF 0 286 0 0 0 0 8219 158 
	WRITEBACK 0 0 0 0 0 0 0 236 
Total Prefetch Downgrades: 761
