
*** ChampSim Multicore Out-of-Order Simulator ***

Warmup Instructions: 10000000
Simulation Instructions: 100000000
Configuration: 2
Number of CPUs: 1
LLC sets: 2048
LLC ways: 16
Off-chip DRAM Channels: 1 Width: 64-bit Data Rate: 1600 MT/s

CPU 0 runs /datasets/cs240c-wi22-a00-public/data/Assignment2-gz/libquantum_1735B.trace.gz
CPU 0 L1D next line prefetcher
CPU 0 L2C IP-based stride prefetcher
Heartbeat CPU 0 instructions: 1000001 cycles: 333341 heartbeat IPC: 2.99993 cumulative IPC: 2.99993 (Simulation time: 0 hr 0 min 15 sec) 
select_counter is 491
Heartbeat CPU 0 instructions: 2000000 cycles: 666674 heartbeat IPC: 3 cumulative IPC: 2.99997 (Simulation time: 0 hr 0 min 30 sec) 
select_counter is 476
Heartbeat CPU 0 instructions: 3000000 cycles: 989045 heartbeat IPC: 3.10202 cumulative IPC: 3.03323 (Simulation time: 0 hr 0 min 43 sec) 
select_counter is 448
Heartbeat CPU 0 instructions: 4000000 cycles: 1290770 heartbeat IPC: 3.31428 cumulative IPC: 3.09893 (Simulation time: 0 hr 0 min 58 sec) 
select_counter is 395
Heartbeat CPU 0 instructions: 5000001 cycles: 1592495 heartbeat IPC: 3.31428 cumulative IPC: 3.13973 (Simulation time: 0 hr 1 min 13 sec) 
select_counter is 445
Heartbeat CPU 0 instructions: 6000001 cycles: 1894219 heartbeat IPC: 3.31429 cumulative IPC: 3.16753 (Simulation time: 0 hr 1 min 28 sec) 
select_counter is 410
Heartbeat CPU 0 instructions: 7000002 cycles: 2195942 heartbeat IPC: 3.3143 cumulative IPC: 3.1877 (Simulation time: 0 hr 1 min 43 sec) 
select_counter is 366
Heartbeat CPU 0 instructions: 8000000 cycles: 2501897 heartbeat IPC: 3.26845 cumulative IPC: 3.19757 (Simulation time: 0 hr 2 min 2 sec) 
select_counter is 330
Heartbeat CPU 0 instructions: 9000000 cycles: 2835230 heartbeat IPC: 3 cumulative IPC: 3.17435 (Simulation time: 0 hr 2 min 17 sec) 
select_counter is 312
Heartbeat CPU 0 instructions: 10000002 cycles: 3168564 heartbeat IPC: 3 cumulative IPC: 3.156 (Simulation time: 0 hr 2 min 31 sec) 
select_counter is 310

Warmup complete CPU 0 instructions: 10000002 cycles: 3168564 (Simulation time: 0 hr 2 min 31 sec) 

Heartbeat CPU 0 instructions: 11000001 cycles: 4593870 heartbeat IPC: 0.701603 cumulative IPC: 0.701603 (Simulation time: 0 hr 2 min 56 sec) 
select_counter is 296
Heartbeat CPU 0 instructions: 12000000 cycles: 6018722 heartbeat IPC: 0.701827 cumulative IPC: 0.701715 (Simulation time: 0 hr 3 min 25 sec) 
select_counter is 302
Heartbeat CPU 0 instructions: 13000001 cycles: 7851996 heartbeat IPC: 0.545473 cumulative IPC: 0.640556 (Simulation time: 0 hr 3 min 50 sec) 
select_counter is 282
Heartbeat CPU 0 instructions: 14000000 cycles: 10435998 heartbeat IPC: 0.386996 cumulative IPC: 0.5504 (Simulation time: 0 hr 4 min 14 sec) 
select_counter is 275
Heartbeat CPU 0 instructions: 15000000 cycles: 13020782 heartbeat IPC: 0.38688 cumulative IPC: 0.5075 (Simulation time: 0 hr 4 min 38 sec) 
select_counter is 270
Heartbeat CPU 0 instructions: 16000000 cycles: 15596700 heartbeat IPC: 0.388211 cumulative IPC: 0.482775 (Simulation time: 0 hr 5 min 0 sec) 
select_counter is 284
Heartbeat CPU 0 instructions: 17000002 cycles: 18183845 heartbeat IPC: 0.386527 cumulative IPC: 0.466192 (Simulation time: 0 hr 5 min 22 sec) 
select_counter is 377
Heartbeat CPU 0 instructions: 18000001 cycles: 20428499 heartbeat IPC: 0.445503 cumulative IPC: 0.463501 (Simulation time: 0 hr 5 min 47 sec) 
select_counter is 417
Heartbeat CPU 0 instructions: 19000000 cycles: 21930973 heartbeat IPC: 0.665568 cumulative IPC: 0.479682 (Simulation time: 0 hr 6 min 14 sec) 
select_counter is 427
Heartbeat CPU 0 instructions: 20000000 cycles: 23367971 heartbeat IPC: 0.695895 cumulative IPC: 0.495064 (Simulation time: 0 hr 6 min 40 sec) 
select_counter is 131
Heartbeat CPU 0 instructions: 21000001 cycles: 24781640 heartbeat IPC: 0.70738 cumulative IPC: 0.508951 (Simulation time: 0 hr 7 min 4 sec) 
select_counter is 761
Heartbeat CPU 0 instructions: 22000000 cycles: 26281146 heartbeat IPC: 0.666886 cumulative IPC: 0.519198 (Simulation time: 0 hr 7 min 30 sec) 
select_counter is 744
Heartbeat CPU 0 instructions: 23000000 cycles: 28462759 heartbeat IPC: 0.458376 cumulative IPC: 0.513952 (Simulation time: 0 hr 7 min 54 sec) 
select_counter is 731
Heartbeat CPU 0 instructions: 24000000 cycles: 31132207 heartbeat IPC: 0.374609 cumulative IPC: 0.50065 (Simulation time: 0 hr 8 min 19 sec) 
select_counter is 737
Heartbeat CPU 0 instructions: 25000000 cycles: 33823518 heartbeat IPC: 0.371566 cumulative IPC: 0.489317 (Simulation time: 0 hr 8 min 41 sec) 
select_counter is 745
Heartbeat CPU 0 instructions: 26000000 cycles: 36498979 heartbeat IPC: 0.373767 cumulative IPC: 0.480042 (Simulation time: 0 hr 9 min 4 sec) 
select_counter is 759
Heartbeat CPU 0 instructions: 27000001 cycles: 39195059 heartbeat IPC: 0.370909 cumulative IPC: 0.471875 (Simulation time: 0 hr 9 min 27 sec) 
select_counter is 743
Heartbeat CPU 0 instructions: 28000000 cycles: 41194000 heartbeat IPC: 0.500264 cumulative IPC: 0.473367 (Simulation time: 0 hr 9 min 50 sec) 
select_counter is 715
Heartbeat CPU 0 instructions: 29000000 cycles: 42637211 heartbeat IPC: 0.692899 cumulative IPC: 0.481395 (Simulation time: 0 hr 10 min 19 sec) 
select_counter is 722
Heartbeat CPU 0 instructions: 30000001 cycles: 44061185 heartbeat IPC: 0.702261 cumulative IPC: 0.489086 (Simulation time: 0 hr 10 min 46 sec) 
select_counter is 682
Heartbeat CPU 0 instructions: 31000000 cycles: 45483888 heartbeat IPC: 0.702887 cumulative IPC: 0.496274 (Simulation time: 0 hr 11 min 10 sec) 
select_counter is 599
Heartbeat CPU 0 instructions: 32000000 cycles: 46905704 heartbeat IPC: 0.703326 cumulative IPC: 0.503005 (Simulation time: 0 hr 11 min 37 sec) 
select_counter is 693
Heartbeat CPU 0 instructions: 33000002 cycles: 48949411 heartbeat IPC: 0.489308 cumulative IPC: 0.502393 (Simulation time: 0 hr 12 min 1 sec) 
select_counter is 671
Heartbeat CPU 0 instructions: 34000002 cycles: 51143355 heartbeat IPC: 0.4558 cumulative IPC: 0.500263 (Simulation time: 0 hr 12 min 23 sec) 
select_counter is 700
Heartbeat CPU 0 instructions: 35000000 cycles: 53315426 heartbeat IPC: 0.460389 cumulative IPC: 0.498536 (Simulation time: 0 hr 12 min 48 sec) 
select_counter is 713
Heartbeat CPU 0 instructions: 36000000 cycles: 55498294 heartbeat IPC: 0.458113 cumulative IPC: 0.496849 (Simulation time: 0 hr 13 min 11 sec) 
select_counter is 922
Heartbeat CPU 0 instructions: 37000002 cycles: 57692947 heartbeat IPC: 0.455654 cumulative IPC: 0.495191 (Simulation time: 0 hr 13 min 35 sec) 
select_counter is 1022
Heartbeat CPU 0 instructions: 38000003 cycles: 59429437 heartbeat IPC: 0.575875 cumulative IPC: 0.497682 (Simulation time: 0 hr 14 min 2 sec) 
select_counter is 1018
Heartbeat CPU 0 instructions: 39000000 cycles: 60862806 heartbeat IPC: 0.697655 cumulative IPC: 0.50265 (Simulation time: 0 hr 14 min 29 sec) 
select_counter is 1020
Heartbeat CPU 0 instructions: 40000000 cycles: 62259903 heartbeat IPC: 0.71577 cumulative IPC: 0.507689 (Simulation time: 0 hr 14 min 54 sec) 
select_counter is 317
Heartbeat CPU 0 instructions: 41000000 cycles: 63671546 heartbeat IPC: 0.708394 cumulative IPC: 0.512371 (Simulation time: 0 hr 15 min 22 sec) 
select_counter is 220
Heartbeat CPU 0 instructions: 42000001 cycles: 65115260 heartbeat IPC: 0.692659 cumulative IPC: 0.516573 (Simulation time: 0 hr 15 min 48 sec) 
select_counter is 459
Heartbeat CPU 0 instructions: 43000000 cycles: 67230340 heartbeat IPC: 0.472795 cumulative IPC: 0.515128 (Simulation time: 0 hr 16 min 11 sec) 
select_counter is 577
Heartbeat CPU 0 instructions: 44000000 cycles: 69446637 heartbeat IPC: 0.451203 cumulative IPC: 0.51299 (Simulation time: 0 hr 16 min 34 sec) 
select_counter is 756
Heartbeat CPU 0 instructions: 45000001 cycles: 71652966 heartbeat IPC: 0.453242 cumulative IPC: 0.511065 (Simulation time: 0 hr 16 min 58 sec) 
select_counter is 875
Heartbeat CPU 0 instructions: 46000002 cycles: 73835134 heartbeat IPC: 0.45826 cumulative IPC: 0.509435 (Simulation time: 0 hr 17 min 23 sec) 
select_counter is 1010
Heartbeat CPU 0 instructions: 47000000 cycles: 76027241 heartbeat IPC: 0.456181 cumulative IPC: 0.507832 (Simulation time: 0 hr 17 min 46 sec) 
select_counter is 1012
Heartbeat CPU 0 instructions: 48000000 cycles: 77768554 heartbeat IPC: 0.574279 cumulative IPC: 0.509383 (Simulation time: 0 hr 18 min 13 sec) 
select_counter is 975
Heartbeat CPU 0 instructions: 49000002 cycles: 79288146 heartbeat IPC: 0.658073 cumulative IPC: 0.512352 (Simulation time: 0 hr 18 min 41 sec) 
select_counter is 980
Heartbeat CPU 0 instructions: 50000001 cycles: 80809655 heartbeat IPC: 0.657242 cumulative IPC: 0.515191 (Simulation time: 0 hr 19 min 9 sec) 
select_counter is 890
Heartbeat CPU 0 instructions: 51000000 cycles: 82331187 heartbeat IPC: 0.657232 cumulative IPC: 0.517921 (Simulation time: 0 hr 19 min 33 sec) 
select_counter is 764
Heartbeat CPU 0 instructions: 52000000 cycles: 83850855 heartbeat IPC: 0.658038 cumulative IPC: 0.52056 (Simulation time: 0 hr 20 min 0 sec) 
select_counter is 795
Heartbeat CPU 0 instructions: 53000002 cycles: 85379216 heartbeat IPC: 0.654297 cumulative IPC: 0.523047 (Simulation time: 0 hr 20 min 28 sec) 
select_counter is 788
Heartbeat CPU 0 instructions: 54000001 cycles: 86903099 heartbeat IPC: 0.656218 cumulative IPC: 0.52547 (Simulation time: 0 hr 20 min 54 sec) 
select_counter is 799
Heartbeat CPU 0 instructions: 55000000 cycles: 88416727 heartbeat IPC: 0.660664 cumulative IPC: 0.527871 (Simulation time: 0 hr 21 min 22 sec) 
select_counter is 888
Heartbeat CPU 0 instructions: 56000000 cycles: 89925724 heartbeat IPC: 0.662692 cumulative IPC: 0.530216 (Simulation time: 0 hr 21 min 49 sec) 
select_counter is 1023
Heartbeat CPU 0 instructions: 57000000 cycles: 91436689 heartbeat IPC: 0.661829 cumulative IPC: 0.532468 (Simulation time: 0 hr 22 min 15 sec) 
select_counter is 1003
Heartbeat CPU 0 instructions: 58000002 cycles: 92964768 heartbeat IPC: 0.654418 cumulative IPC: 0.534544 (Simulation time: 0 hr 22 min 41 sec) 
select_counter is 1010
Heartbeat CPU 0 instructions: 59000001 cycles: 94520423 heartbeat IPC: 0.642815 cumulative IPC: 0.536388 (Simulation time: 0 hr 23 min 8 sec) 
select_counter is 796
Heartbeat CPU 0 instructions: 60000000 cycles: 95994889 heartbeat IPC: 0.678211 cumulative IPC: 0.53864 (Simulation time: 0 hr 23 min 36 sec) 
select_counter is 278
Heartbeat CPU 0 instructions: 61000003 cycles: 97513339 heartbeat IPC: 0.658568 cumulative IPC: 0.54057 (Simulation time: 0 hr 24 min 6 sec) 
select_counter is 379
Heartbeat CPU 0 instructions: 62000002 cycles: 99028039 heartbeat IPC: 0.660196 cumulative IPC: 0.542461 (Simulation time: 0 hr 24 min 33 sec) 
select_counter is 595
Heartbeat CPU 0 instructions: 63000001 cycles: 100543861 heartbeat IPC: 0.659707 cumulative IPC: 0.544286 (Simulation time: 0 hr 24 min 57 sec) 
select_counter is 746
Heartbeat CPU 0 instructions: 64000000 cycles: 102037756 heartbeat IPC: 0.66939 cumulative IPC: 0.546176 (Simulation time: 0 hr 25 min 24 sec) 
select_counter is 882
Heartbeat CPU 0 instructions: 65000001 cycles: 103527818 heartbeat IPC: 0.671114 cumulative IPC: 0.548031 (Simulation time: 0 hr 25 min 50 sec) 
select_counter is 969
Heartbeat CPU 0 instructions: 66000000 cycles: 105043860 heartbeat IPC: 0.659612 cumulative IPC: 0.549692 (Simulation time: 0 hr 26 min 20 sec) 
select_counter is 997
Heartbeat CPU 0 instructions: 67000001 cycles: 106531089 heartbeat IPC: 0.672392 cumulative IPC: 0.551457 (Simulation time: 0 hr 26 min 45 sec) 
select_counter is 1002
Heartbeat CPU 0 instructions: 68000000 cycles: 108023212 heartbeat IPC: 0.670185 cumulative IPC: 0.553147 (Simulation time: 0 hr 27 min 13 sec) 
select_counter is 993
Heartbeat CPU 0 instructions: 69000002 cycles: 109515253 heartbeat IPC: 0.670224 cumulative IPC: 0.554789 (Simulation time: 0 hr 27 min 44 sec) 
select_counter is 844
Heartbeat CPU 0 instructions: 70000001 cycles: 110998585 heartbeat IPC: 0.674157 cumulative IPC: 0.556431 (Simulation time: 0 hr 28 min 15 sec) 
select_counter is 657
Heartbeat CPU 0 instructions: 71000003 cycles: 112547842 heartbeat IPC: 0.645472 cumulative IPC: 0.557692 (Simulation time: 0 hr 28 min 43 sec) 
select_counter is 697
Heartbeat CPU 0 instructions: 72000000 cycles: 114705540 heartbeat IPC: 0.463455 cumulative IPC: 0.555869 (Simulation time: 0 hr 29 min 10 sec) 
select_counter is 776
Heartbeat CPU 0 instructions: 73000000 cycles: 116878685 heartbeat IPC: 0.460163 cumulative IPC: 0.55404 (Simulation time: 0 hr 29 min 36 sec) 
select_counter is 870
Heartbeat CPU 0 instructions: 74000000 cycles: 119045846 heartbeat IPC: 0.461433 cumulative IPC: 0.552308 (Simulation time: 0 hr 30 min 1 sec) 
select_counter is 950
Heartbeat CPU 0 instructions: 75000000 cycles: 121211120 heartbeat IPC: 0.461835 cumulative IPC: 0.550649 (Simulation time: 0 hr 30 min 28 sec) 
select_counter is 1023
Heartbeat CPU 0 instructions: 76000000 cycles: 123385350 heartbeat IPC: 0.459933 cumulative IPC: 0.549008 (Simulation time: 0 hr 30 min 55 sec) 
select_counter is 1022
Heartbeat CPU 0 instructions: 77000001 cycles: 124982341 heartbeat IPC: 0.626178 cumulative IPC: 0.55002 (Simulation time: 0 hr 31 min 24 sec) 
select_counter is 1009
Heartbeat CPU 0 instructions: 78000000 cycles: 126496584 heartbeat IPC: 0.660395 cumulative IPC: 0.551375 (Simulation time: 0 hr 31 min 52 sec) 
select_counter is 1017
Heartbeat CPU 0 instructions: 79000001 cycles: 127933943 heartbeat IPC: 0.695721 cumulative IPC: 0.553038 (Simulation time: 0 hr 32 min 23 sec) 
select_counter is 307
Heartbeat CPU 0 instructions: 80000000 cycles: 129439782 heartbeat IPC: 0.664081 cumulative IPC: 0.554362 (Simulation time: 0 hr 32 min 53 sec) 
select_counter is 352
Heartbeat CPU 0 instructions: 81000002 cycles: 131036455 heartbeat IPC: 0.626304 cumulative IPC: 0.555261 (Simulation time: 0 hr 33 min 22 sec) 
select_counter is 564
Heartbeat CPU 0 instructions: 82000003 cycles: 133212770 heartbeat IPC: 0.459493 cumulative IPC: 0.553658 (Simulation time: 0 hr 33 min 49 sec) 
select_counter is 816
Heartbeat CPU 0 instructions: 83000000 cycles: 135409655 heartbeat IPC: 0.455189 cumulative IPC: 0.552022 (Simulation time: 0 hr 34 min 16 sec) 
select_counter is 1017
Heartbeat CPU 0 instructions: 84000000 cycles: 137603600 heartbeat IPC: 0.4558 cumulative IPC: 0.550452 (Simulation time: 0 hr 34 min 42 sec) 
select_counter is 1020
Heartbeat CPU 0 instructions: 85000002 cycles: 139811094 heartbeat IPC: 0.453003 cumulative IPC: 0.548877 (Simulation time: 0 hr 35 min 8 sec) 
select_counter is 1013
Heartbeat CPU 0 instructions: 86000002 cycles: 142036347 heartbeat IPC: 0.449387 cumulative IPC: 0.547283 (Simulation time: 0 hr 35 min 35 sec) 
select_counter is 1015
Heartbeat CPU 0 instructions: 87000002 cycles: 143739086 heartbeat IPC: 0.587289 cumulative IPC: 0.547768 (Simulation time: 0 hr 36 min 8 sec) 
select_counter is 1003
Heartbeat CPU 0 instructions: 88000000 cycles: 145329769 heartbeat IPC: 0.628659 cumulative IPC: 0.548673 (Simulation time: 0 hr 36 min 39 sec) 
select_counter is 947
Heartbeat CPU 0 instructions: 89000000 cycles: 146916721 heartbeat IPC: 0.630139 cumulative IPC: 0.549572 (Simulation time: 0 hr 37 min 8 sec) 
select_counter is 536
Heartbeat CPU 0 instructions: 90000000 cycles: 148845686 heartbeat IPC: 0.518413 cumulative IPC: 0.54916 (Simulation time: 0 hr 37 min 38 sec) 
select_counter is 601
Heartbeat CPU 0 instructions: 91000001 cycles: 151677445 heartbeat IPC: 0.353138 cumulative IPC: 0.545422 (Simulation time: 0 hr 38 min 5 sec) 
select_counter is 1022
Heartbeat CPU 0 instructions: 92000000 cycles: 154570741 heartbeat IPC: 0.345626 cumulative IPC: 0.541604 (Simulation time: 0 hr 38 min 32 sec) 
select_counter is 1023
Heartbeat CPU 0 instructions: 93000001 cycles: 157516841 heartbeat IPC: 0.339432 cumulative IPC: 0.537745 (Simulation time: 0 hr 39 min 0 sec) 
select_counter is 1020
Heartbeat CPU 0 instructions: 94000001 cycles: 160307355 heartbeat IPC: 0.358357 cumulative IPC: 0.534559 (Simulation time: 0 hr 39 min 30 sec) 
select_counter is 1021
Heartbeat CPU 0 instructions: 95000000 cycles: 162015568 heartbeat IPC: 0.585406 cumulative IPC: 0.535106 (Simulation time: 0 hr 40 min 1 sec) 
select_counter is 1015
Heartbeat CPU 0 instructions: 96000000 cycles: 163625114 heartbeat IPC: 0.621293 cumulative IPC: 0.535971 (Simulation time: 0 hr 40 min 30 sec) 
select_counter is 291
Heartbeat CPU 0 instructions: 97000002 cycles: 165197983 heartbeat IPC: 0.635782 cumulative IPC: 0.53694 (Simulation time: 0 hr 41 min 2 sec) 
select_counter is 279
Heartbeat CPU 0 instructions: 98000001 cycles: 167380986 heartbeat IPC: 0.458084 cumulative IPC: 0.535891 (Simulation time: 0 hr 41 min 29 sec) 
select_counter is 398
Heartbeat CPU 0 instructions: 99000003 cycles: 170152127 heartbeat IPC: 0.360863 cumulative IPC: 0.532987 (Simulation time: 0 hr 41 min 54 sec) 
select_counter is 595
Heartbeat CPU 0 instructions: 100000000 cycles: 172861538 heartbeat IPC: 0.369083 cumulative IPC: 0.53037 (Simulation time: 0 hr 42 min 21 sec) 
select_counter is 621
Heartbeat CPU 0 instructions: 101000000 cycles: 175549961 heartbeat IPC: 0.371965 cumulative IPC: 0.527899 (Simulation time: 0 hr 42 min 44 sec) 
select_counter is 666
Heartbeat CPU 0 instructions: 102000000 cycles: 177811863 heartbeat IPC: 0.442106 cumulative IPC: 0.526788 (Simulation time: 0 hr 43 min 11 sec) 
select_counter is 678
Heartbeat CPU 0 instructions: 103000002 cycles: 179282728 heartbeat IPC: 0.679873 cumulative IPC: 0.528067 (Simulation time: 0 hr 43 min 38 sec) 
select_counter is 678
Heartbeat CPU 0 instructions: 104000000 cycles: 180754070 heartbeat IPC: 0.67965 cumulative IPC: 0.529322 (Simulation time: 0 hr 44 min 3 sec) 
select_counter is 650
Heartbeat CPU 0 instructions: 105000000 cycles: 182265180 heartbeat IPC: 0.661765 cumulative IPC: 0.53044 (Simulation time: 0 hr 44 min 29 sec) 
select_counter is 202
Heartbeat CPU 0 instructions: 106000003 cycles: 183735907 heartbeat IPC: 0.679938 cumulative IPC: 0.531658 (Simulation time: 0 hr 44 min 55 sec) 
select_counter is 219
Heartbeat CPU 0 instructions: 107000000 cycles: 185918922 heartbeat IPC: 0.458081 cumulative IPC: 0.530779 (Simulation time: 0 hr 45 min 15 sec) 
select_counter is 163
Heartbeat CPU 0 instructions: 108000000 cycles: 188477599 heartbeat IPC: 0.390827 cumulative IPC: 0.528846 (Simulation time: 0 hr 45 min 34 sec) 
select_counter is 196
Heartbeat CPU 0 instructions: 109000002 cycles: 191000198 heartbeat IPC: 0.396417 cumulative IPC: 0.527068 (Simulation time: 0 hr 45 min 54 sec) 
select_counter is 233
Heartbeat CPU 0 instructions: 110000002 cycles: 193481807 heartbeat IPC: 0.402964 cumulative IPC: 0.52545 (Simulation time: 0 hr 46 min 11 sec) 
select_counter is 515
Finished CPU 0 instructions: 100000000 cycles: 190313243 cummulative IPC: 0.52545 (Simulation time: 0 hr 46 min 11 sec) 

ChampSim completed all CPUs

Region of Interest Statistics

CPU 0 cummulative IPC: 0.52545 instructions: 100000000 cycles: 190313243
LLC TOTAL     ACCESS:    3801551  HIT:     194976  MISS:    3606575
LLC LOAD      ACCESS:     655245  HIT:      19398  MISS:     635847
LLC RFO       ACCESS:         20  HIT:         13  MISS:          7
LLC PREFETCH  ACCESS:    2134181  HIT:      77170  MISS:    2057011
LLC WRITEBACK ACCESS:    1012105  HIT:      98395  MISS:     913710
Ship samples: size is 64
13, 56, 78, 93, 130, 173, 189, 217, 266, 300, 335, 337, 391, 426, 455, 478, 513, 553, 585, 600, 639, 676, 694, 719, 761, 815, 822, 847, 897, 933, 957, 974, 1012, 1058, 1086, 1093, 1136, 1183, 1217, 1230, 1266, 1309, 1332, 1354, 1395, 1444, 1461, 1476, 1513, 1565, 1591, 1596, 1639, 1683, 1710, 1731, 1778, 1818, 1837, 1861, 1901, 1936, 1955, 1982, 
Ship duel samples: size is 96
13, 25, 56, 78, 93, 114, 130, 167, 173, 189, 217, 240, 266, 274, 300, 335, 337, 366, 391, 411, 426, 455, 478, 498, 513, 544, 553, 585, 600, 620, 639, 668, 676, 694, 719, 749, 761, 779, 815, 822, 847, 866, 897, 912, 933, 957, 974, 1004, 1012, 1032, 1058, 1086, 1093, 1113, 1136, 1175, 1183, 1217, 1230, 1258, 1266, 1281, 1309, 1332, 1354, 1376, 1395, 1420, 1444, 1461, 1476, 1495, 1513, 1551, 1565, 1591, 1596, 1629, 1639, 1667, 1683, 1710, 1731, 1743, 1778, 1791, 1818, 1837, 1861, 1885, 1901, 1929, 1936, 1955, 1982, 2008, 
Lime duel samples: size is 96
17, 32, 60, 65, 94, 112, 132, 164, 184, 200, 221, 245, 271, 289, 301, 328, 347, 364, 394, 415, 435, 460, 476, 499, 516, 534, 566, 583, 606, 610, 643, 665, 684, 701, 728, 736, 772, 797, 814, 828, 850, 867, 884, 910, 944, 954, 986, 997, 1022, 1043, 1054, 1079, 1102, 1131, 1135, 1155, 1180, 1197, 1234, 1240, 1261, 1287, 1315, 1334, 1358, 1369, 1397, 1414, 1429, 1455, 1486, 1503, 1523, 1552, 1571, 1583, 1601, 1631, 1655, 1677, 1687, 1701, 1725, 1759, 1780, 1790, 1822, 1846, 1851, 1878, 1908, 1916, 1947, 1962, 1988, 2001, 
Lime samples: size is 15
17, 132, 271, 394, 516, 643, 772, 884, 1022, 1135, 1261, 1397, 1523, 1655, 1780, 
Insertion Distribution: 
	LOAD 321 0 0 0 0 0 12650 155840 
	RFO 0 0 0 0 0 0 4 0 
	PREF 0 3584 0 0 0 0 23423 785192 
	WRITEBACK 0 0 0 0 0 0 0 331442 
Total Prefetch Downgrades: 5417
