
*** ChampSim Multicore Out-of-Order Simulator ***

Warmup Instructions: 10000000
Simulation Instructions: 100000000
Configuration: 2
Number of CPUs: 1
LLC sets: 2048
LLC ways: 16
Off-chip DRAM Channels: 1 Width: 64-bit Data Rate: 1600 MT/s

CPU 0 runs /datasets/cs240c-wi22-a00-public/data/Assignment2-gz/omnetpp_340B.trace.gz
CPU 0 L1D next line prefetcher
CPU 0 L2C IP-based stride prefetcher
Heartbeat CPU 0 instructions: 1000001 cycles: 576955 heartbeat IPC: 1.73324 cumulative IPC: 1.73324 (Simulation time: 0 hr 0 min 29 sec) 
select_counter is 351
Heartbeat CPU 0 instructions: 2000000 cycles: 1160891 heartbeat IPC: 1.71251 cumulative IPC: 1.72281 (Simulation time: 0 hr 0 min 58 sec) 
select_counter is 316
Heartbeat CPU 0 instructions: 3000001 cycles: 1758177 heartbeat IPC: 1.67424 cumulative IPC: 1.70631 (Simulation time: 0 hr 1 min 25 sec) 
select_counter is 161
Heartbeat CPU 0 instructions: 4000000 cycles: 2379108 heartbeat IPC: 1.61048 cumulative IPC: 1.6813 (Simulation time: 0 hr 1 min 57 sec) 
select_counter is 319
Heartbeat CPU 0 instructions: 5000002 cycles: 2954398 heartbeat IPC: 1.73826 cumulative IPC: 1.69239 (Simulation time: 0 hr 2 min 26 sec) 
select_counter is 371
Heartbeat CPU 0 instructions: 6000003 cycles: 3555889 heartbeat IPC: 1.66254 cumulative IPC: 1.68734 (Simulation time: 0 hr 2 min 56 sec) 
select_counter is 497
Heartbeat CPU 0 instructions: 7000003 cycles: 4205329 heartbeat IPC: 1.53979 cumulative IPC: 1.66456 (Simulation time: 0 hr 3 min 26 sec) 
select_counter is 532
Heartbeat CPU 0 instructions: 8000000 cycles: 4799949 heartbeat IPC: 1.68174 cumulative IPC: 1.66668 (Simulation time: 0 hr 3 min 55 sec) 
select_counter is 612
Heartbeat CPU 0 instructions: 9000002 cycles: 5433109 heartbeat IPC: 1.57938 cumulative IPC: 1.65651 (Simulation time: 0 hr 4 min 24 sec) 
select_counter is 744
Heartbeat CPU 0 instructions: 10000002 cycles: 6027748 heartbeat IPC: 1.68169 cumulative IPC: 1.65899 (Simulation time: 0 hr 4 min 52 sec) 
select_counter is 710

Warmup complete CPU 0 instructions: 10000002 cycles: 6027748 (Simulation time: 0 hr 4 min 52 sec) 

Heartbeat CPU 0 instructions: 11000000 cycles: 9617270 heartbeat IPC: 0.278588 cumulative IPC: 0.278588 (Simulation time: 0 hr 5 min 30 sec) 
select_counter is 888
Heartbeat CPU 0 instructions: 12000000 cycles: 13162626 heartbeat IPC: 0.282059 cumulative IPC: 0.280313 (Simulation time: 0 hr 6 min 8 sec) 
select_counter is 745
Heartbeat CPU 0 instructions: 13000000 cycles: 16944285 heartbeat IPC: 0.264434 cumulative IPC: 0.274812 (Simulation time: 0 hr 6 min 45 sec) 
select_counter is 791
Heartbeat CPU 0 instructions: 14000001 cycles: 20775662 heartbeat IPC: 0.261003 cumulative IPC: 0.271225 (Simulation time: 0 hr 7 min 21 sec) 
select_counter is 715
Heartbeat CPU 0 instructions: 15000003 cycles: 24770655 heartbeat IPC: 0.250314 cumulative IPC: 0.266768 (Simulation time: 0 hr 8 min 0 sec) 
select_counter is 554
Heartbeat CPU 0 instructions: 16000000 cycles: 28956340 heartbeat IPC: 0.238909 cumulative IPC: 0.261682 (Simulation time: 0 hr 8 min 39 sec) 
select_counter is 556
Heartbeat CPU 0 instructions: 17000000 cycles: 32726656 heartbeat IPC: 0.26523 cumulative IPC: 0.262183 (Simulation time: 0 hr 9 min 18 sec) 
select_counter is 532
Heartbeat CPU 0 instructions: 18000000 cycles: 36662329 heartbeat IPC: 0.254086 cumulative IPC: 0.261143 (Simulation time: 0 hr 9 min 57 sec) 
select_counter is 505
Heartbeat CPU 0 instructions: 19000000 cycles: 40977910 heartbeat IPC: 0.231719 cumulative IPC: 0.257509 (Simulation time: 0 hr 10 min 34 sec) 
select_counter is 367
Heartbeat CPU 0 instructions: 20000000 cycles: 45053785 heartbeat IPC: 0.245346 cumulative IPC: 0.256239 (Simulation time: 0 hr 11 min 12 sec) 
select_counter is 248
Heartbeat CPU 0 instructions: 21000000 cycles: 48558769 heartbeat IPC: 0.285308 cumulative IPC: 0.258635 (Simulation time: 0 hr 11 min 47 sec) 
select_counter is 79
Heartbeat CPU 0 instructions: 22000001 cycles: 52488585 heartbeat IPC: 0.254465 cumulative IPC: 0.258282 (Simulation time: 0 hr 12 min 27 sec) 
select_counter is 46
Heartbeat CPU 0 instructions: 23000001 cycles: 56334949 heartbeat IPC: 0.259986 cumulative IPC: 0.258412 (Simulation time: 0 hr 13 min 5 sec) 
select_counter is 56
Heartbeat CPU 0 instructions: 24000000 cycles: 60147901 heartbeat IPC: 0.262264 cumulative IPC: 0.258684 (Simulation time: 0 hr 13 min 42 sec) 
select_counter is 24
Heartbeat CPU 0 instructions: 25000000 cycles: 64195609 heartbeat IPC: 0.247053 cumulative IPC: 0.257874 (Simulation time: 0 hr 14 min 20 sec) 
select_counter is 1022
Heartbeat CPU 0 instructions: 26000001 cycles: 68226192 heartbeat IPC: 0.248103 cumulative IPC: 0.257241 (Simulation time: 0 hr 14 min 56 sec) 
select_counter is 1011
Heartbeat CPU 0 instructions: 27000000 cycles: 72252716 heartbeat IPC: 0.248353 cumulative IPC: 0.256701 (Simulation time: 0 hr 15 min 35 sec) 
select_counter is 886
Heartbeat CPU 0 instructions: 28000000 cycles: 76308103 heartbeat IPC: 0.246586 cumulative IPC: 0.256117 (Simulation time: 0 hr 16 min 19 sec) 
select_counter is 824
Heartbeat CPU 0 instructions: 29000003 cycles: 80358944 heartbeat IPC: 0.246863 cumulative IPC: 0.255613 (Simulation time: 0 hr 16 min 58 sec) 
select_counter is 824
Heartbeat CPU 0 instructions: 30000000 cycles: 83978622 heartbeat IPC: 0.276267 cumulative IPC: 0.256572 (Simulation time: 0 hr 17 min 35 sec) 
select_counter is 972
Heartbeat CPU 0 instructions: 31000000 cycles: 87822999 heartbeat IPC: 0.26012 cumulative IPC: 0.256739 (Simulation time: 0 hr 18 min 14 sec) 
select_counter is 935
Heartbeat CPU 0 instructions: 32000000 cycles: 91531243 heartbeat IPC: 0.269669 cumulative IPC: 0.257299 (Simulation time: 0 hr 18 min 54 sec) 
select_counter is 1016
Heartbeat CPU 0 instructions: 33000003 cycles: 95250108 heartbeat IPC: 0.2689 cumulative IPC: 0.257783 (Simulation time: 0 hr 19 min 32 sec) 
select_counter is 976
Heartbeat CPU 0 instructions: 34000001 cycles: 99414492 heartbeat IPC: 0.240131 cumulative IPC: 0.256996 (Simulation time: 0 hr 20 min 12 sec) 
select_counter is 872
Heartbeat CPU 0 instructions: 35000002 cycles: 102980380 heartbeat IPC: 0.280435 cumulative IPC: 0.257858 (Simulation time: 0 hr 20 min 51 sec) 
select_counter is 946
Heartbeat CPU 0 instructions: 36000000 cycles: 107235533 heartbeat IPC: 0.235009 cumulative IPC: 0.256897 (Simulation time: 0 hr 21 min 33 sec) 
select_counter is 985
Heartbeat CPU 0 instructions: 37000000 cycles: 111505809 heartbeat IPC: 0.234177 cumulative IPC: 0.255977 (Simulation time: 0 hr 22 min 12 sec) 
select_counter is 1013
Heartbeat CPU 0 instructions: 38000000 cycles: 115285265 heartbeat IPC: 0.264588 cumulative IPC: 0.256275 (Simulation time: 0 hr 22 min 51 sec) 
select_counter is 1009
Heartbeat CPU 0 instructions: 39000001 cycles: 119462801 heartbeat IPC: 0.239376 cumulative IPC: 0.255653 (Simulation time: 0 hr 23 min 29 sec) 
select_counter is 1016
Heartbeat CPU 0 instructions: 40000000 cycles: 122975259 heartbeat IPC: 0.284701 cumulative IPC: 0.256525 (Simulation time: 0 hr 24 min 7 sec) 
select_counter is 994
Heartbeat CPU 0 instructions: 41000000 cycles: 126603689 heartbeat IPC: 0.275601 cumulative IPC: 0.257099 (Simulation time: 0 hr 24 min 43 sec) 
select_counter is 1014
Heartbeat CPU 0 instructions: 42000001 cycles: 130688207 heartbeat IPC: 0.244827 cumulative IPC: 0.256697 (Simulation time: 0 hr 25 min 22 sec) 
select_counter is 1023
Heartbeat CPU 0 instructions: 43000001 cycles: 134701747 heartbeat IPC: 0.249157 cumulative IPC: 0.256462 (Simulation time: 0 hr 26 min 0 sec) 
select_counter is 1015
Heartbeat CPU 0 instructions: 44000000 cycles: 138392651 heartbeat IPC: 0.270936 cumulative IPC: 0.256866 (Simulation time: 0 hr 26 min 39 sec) 
select_counter is 1007
Heartbeat CPU 0 instructions: 45000003 cycles: 142324991 heartbeat IPC: 0.254302 cumulative IPC: 0.256792 (Simulation time: 0 hr 27 min 19 sec) 
select_counter is 1011
Heartbeat CPU 0 instructions: 46000003 cycles: 146366891 heartbeat IPC: 0.247408 cumulative IPC: 0.256521 (Simulation time: 0 hr 28 min 1 sec) 
select_counter is 990
Heartbeat CPU 0 instructions: 47000000 cycles: 149503432 heartbeat IPC: 0.318822 cumulative IPC: 0.257883 (Simulation time: 0 hr 28 min 40 sec) 
select_counter is 1013
Heartbeat CPU 0 instructions: 48000000 cycles: 153456340 heartbeat IPC: 0.252978 cumulative IPC: 0.257752 (Simulation time: 0 hr 29 min 19 sec) 
select_counter is 1018
Heartbeat CPU 0 instructions: 49000000 cycles: 156487000 heartbeat IPC: 0.329961 cumulative IPC: 0.259206 (Simulation time: 0 hr 29 min 56 sec) 
select_counter is 981
Heartbeat CPU 0 instructions: 50000001 cycles: 160589617 heartbeat IPC: 0.243747 cumulative IPC: 0.258796 (Simulation time: 0 hr 30 min 36 sec) 
select_counter is 923
Heartbeat CPU 0 instructions: 51000003 cycles: 164336371 heartbeat IPC: 0.266898 cumulative IPC: 0.258988 (Simulation time: 0 hr 31 min 16 sec) 
select_counter is 940
Heartbeat CPU 0 instructions: 52000000 cycles: 168355963 heartbeat IPC: 0.248781 cumulative IPC: 0.258735 (Simulation time: 0 hr 31 min 59 sec) 
select_counter is 918
Heartbeat CPU 0 instructions: 53000000 cycles: 172852534 heartbeat IPC: 0.222392 cumulative IPC: 0.257755 (Simulation time: 0 hr 32 min 41 sec) 
select_counter is 976
Heartbeat CPU 0 instructions: 54000002 cycles: 176937901 heartbeat IPC: 0.244777 cumulative IPC: 0.257445 (Simulation time: 0 hr 33 min 22 sec) 
select_counter is 1017
Heartbeat CPU 0 instructions: 55000001 cycles: 180838689 heartbeat IPC: 0.256358 cumulative IPC: 0.257421 (Simulation time: 0 hr 34 min 2 sec) 
select_counter is 1006
Heartbeat CPU 0 instructions: 56000000 cycles: 185136995 heartbeat IPC: 0.23265 cumulative IPC: 0.256826 (Simulation time: 0 hr 34 min 44 sec) 
select_counter is 1015
Heartbeat CPU 0 instructions: 57000001 cycles: 189226780 heartbeat IPC: 0.244512 cumulative IPC: 0.256552 (Simulation time: 0 hr 35 min 26 sec) 
select_counter is 1019
Heartbeat CPU 0 instructions: 58000000 cycles: 192602304 heartbeat IPC: 0.29625 cumulative IPC: 0.25727 (Simulation time: 0 hr 36 min 5 sec) 
select_counter is 990
Heartbeat CPU 0 instructions: 59000003 cycles: 196573372 heartbeat IPC: 0.251822 cumulative IPC: 0.257156 (Simulation time: 0 hr 36 min 45 sec) 
select_counter is 991
Heartbeat CPU 0 instructions: 60000000 cycles: 200974945 heartbeat IPC: 0.227191 cumulative IPC: 0.25648 (Simulation time: 0 hr 37 min 29 sec) 
select_counter is 1017
Heartbeat CPU 0 instructions: 61000001 cycles: 205356205 heartbeat IPC: 0.228245 cumulative IPC: 0.255859 (Simulation time: 0 hr 38 min 8 sec) 
select_counter is 969
Heartbeat CPU 0 instructions: 62000000 cycles: 209818278 heartbeat IPC: 0.224111 cumulative IPC: 0.255164 (Simulation time: 0 hr 38 min 47 sec) 
select_counter is 820
Heartbeat CPU 0 instructions: 63000001 cycles: 213565652 heartbeat IPC: 0.266854 cumulative IPC: 0.255375 (Simulation time: 0 hr 39 min 23 sec) 
select_counter is 873
Heartbeat CPU 0 instructions: 64000000 cycles: 217443714 heartbeat IPC: 0.257861 cumulative IPC: 0.255421 (Simulation time: 0 hr 39 min 59 sec) 
select_counter is 931
Heartbeat CPU 0 instructions: 65000001 cycles: 220927586 heartbeat IPC: 0.287037 cumulative IPC: 0.255933 (Simulation time: 0 hr 40 min 34 sec) 
select_counter is 1003
Heartbeat CPU 0 instructions: 66000002 cycles: 224882004 heartbeat IPC: 0.252882 cumulative IPC: 0.255878 (Simulation time: 0 hr 41 min 8 sec) 
select_counter is 1017
Heartbeat CPU 0 instructions: 67000002 cycles: 228738477 heartbeat IPC: 0.259304 cumulative IPC: 0.255937 (Simulation time: 0 hr 41 min 43 sec) 
select_counter is 1010
Heartbeat CPU 0 instructions: 68000000 cycles: 232560105 heartbeat IPC: 0.261668 cumulative IPC: 0.256034 (Simulation time: 0 hr 42 min 17 sec) 
select_counter is 1005
Heartbeat CPU 0 instructions: 69000000 cycles: 236495162 heartbeat IPC: 0.254126 cumulative IPC: 0.256001 (Simulation time: 0 hr 42 min 52 sec) 
select_counter is 1019
Heartbeat CPU 0 instructions: 70000001 cycles: 239940783 heartbeat IPC: 0.290224 cumulative IPC: 0.256506 (Simulation time: 0 hr 43 min 24 sec) 
select_counter is 1023
Heartbeat CPU 0 instructions: 71000003 cycles: 243822421 heartbeat IPC: 0.257624 cumulative IPC: 0.256524 (Simulation time: 0 hr 44 min 2 sec) 
select_counter is 940
Heartbeat CPU 0 instructions: 72000000 cycles: 248244858 heartbeat IPC: 0.226119 cumulative IPC: 0.255969 (Simulation time: 0 hr 44 min 35 sec) 
select_counter is 901
Heartbeat CPU 0 instructions: 73000002 cycles: 252249509 heartbeat IPC: 0.24971 cumulative IPC: 0.255867 (Simulation time: 0 hr 45 min 3 sec) 
select_counter is 942
Heartbeat CPU 0 instructions: 74000000 cycles: 256042278 heartbeat IPC: 0.263659 cumulative IPC: 0.255985 (Simulation time: 0 hr 45 min 32 sec) 
select_counter is 1008
Heartbeat CPU 0 instructions: 75000003 cycles: 260071746 heartbeat IPC: 0.248172 cumulative IPC: 0.255861 (Simulation time: 0 hr 46 min 2 sec) 
select_counter is 1016
Heartbeat CPU 0 instructions: 76000000 cycles: 263908096 heartbeat IPC: 0.260664 cumulative IPC: 0.255933 (Simulation time: 0 hr 46 min 31 sec) 
select_counter is 1012
Heartbeat CPU 0 instructions: 77000002 cycles: 268558572 heartbeat IPC: 0.215032 cumulative IPC: 0.255208 (Simulation time: 0 hr 46 min 58 sec) 
select_counter is 892
Heartbeat CPU 0 instructions: 78000003 cycles: 272443967 heartbeat IPC: 0.257374 cumulative IPC: 0.25524 (Simulation time: 0 hr 47 min 23 sec) 
select_counter is 975
Heartbeat CPU 0 instructions: 79000002 cycles: 276371196 heartbeat IPC: 0.254632 cumulative IPC: 0.255231 (Simulation time: 0 hr 47 min 48 sec) 
select_counter is 989
Heartbeat CPU 0 instructions: 80000000 cycles: 280225708 heartbeat IPC: 0.259436 cumulative IPC: 0.25529 (Simulation time: 0 hr 48 min 13 sec) 
select_counter is 1016
Heartbeat CPU 0 instructions: 81000002 cycles: 284406928 heartbeat IPC: 0.239165 cumulative IPC: 0.255048 (Simulation time: 0 hr 48 min 36 sec) 
select_counter is 985
Heartbeat CPU 0 instructions: 82000000 cycles: 288728838 heartbeat IPC: 0.231379 cumulative IPC: 0.254686 (Simulation time: 0 hr 48 min 58 sec) 
select_counter is 990
Heartbeat CPU 0 instructions: 83000002 cycles: 292482923 heartbeat IPC: 0.266377 cumulative IPC: 0.254839 (Simulation time: 0 hr 49 min 18 sec) 
select_counter is 1016
Heartbeat CPU 0 instructions: 84000000 cycles: 296460688 heartbeat IPC: 0.251397 cumulative IPC: 0.254792 (Simulation time: 0 hr 49 min 38 sec) 
select_counter is 1018
Heartbeat CPU 0 instructions: 85000000 cycles: 300176841 heartbeat IPC: 0.269095 cumulative IPC: 0.254973 (Simulation time: 0 hr 49 min 59 sec) 
select_counter is 1022
Heartbeat CPU 0 instructions: 86000000 cycles: 304081242 heartbeat IPC: 0.256121 cumulative IPC: 0.254988 (Simulation time: 0 hr 50 min 18 sec) 
select_counter is 1002
Heartbeat CPU 0 instructions: 87000001 cycles: 307895755 heartbeat IPC: 0.262157 cumulative IPC: 0.255078 (Simulation time: 0 hr 50 min 36 sec) 
select_counter is 1015
Heartbeat CPU 0 instructions: 88000000 cycles: 311694373 heartbeat IPC: 0.263253 cumulative IPC: 0.25518 (Simulation time: 0 hr 50 min 54 sec) 
select_counter is 1023
Heartbeat CPU 0 instructions: 89000003 cycles: 315182405 heartbeat IPC: 0.286695 cumulative IPC: 0.255536 (Simulation time: 0 hr 51 min 10 sec) 
select_counter is 1006
Heartbeat CPU 0 instructions: 90000000 cycles: 319005239 heartbeat IPC: 0.261585 cumulative IPC: 0.255609 (Simulation time: 0 hr 51 min 25 sec) 
select_counter is 1021
Heartbeat CPU 0 instructions: 91000001 cycles: 322495374 heartbeat IPC: 0.286522 cumulative IPC: 0.25595 (Simulation time: 0 hr 51 min 39 sec) 
select_counter is 1019
Heartbeat CPU 0 instructions: 92000000 cycles: 326523892 heartbeat IPC: 0.24823 cumulative IPC: 0.255853 (Simulation time: 0 hr 51 min 53 sec) 
select_counter is 1022
Heartbeat CPU 0 instructions: 93000001 cycles: 330968147 heartbeat IPC: 0.22501 cumulative IPC: 0.255431 (Simulation time: 0 hr 52 min 8 sec) 
select_counter is 1001
Heartbeat CPU 0 instructions: 94000001 cycles: 334763212 heartbeat IPC: 0.2635 cumulative IPC: 0.255525 (Simulation time: 0 hr 52 min 21 sec) 
select_counter is 1020
Heartbeat CPU 0 instructions: 95000000 cycles: 338756260 heartbeat IPC: 0.250435 cumulative IPC: 0.255464 (Simulation time: 0 hr 52 min 34 sec) 
select_counter is 1008
Heartbeat CPU 0 instructions: 96000000 cycles: 343162579 heartbeat IPC: 0.226947 cumulative IPC: 0.255091 (Simulation time: 0 hr 52 min 46 sec) 
select_counter is 972
Heartbeat CPU 0 instructions: 97000000 cycles: 346798030 heartbeat IPC: 0.275069 cumulative IPC: 0.255304 (Simulation time: 0 hr 52 min 58 sec) 
select_counter is 980
Heartbeat CPU 0 instructions: 98000000 cycles: 351069982 heartbeat IPC: 0.234085 cumulative IPC: 0.255041 (Simulation time: 0 hr 53 min 10 sec) 
select_counter is 1012
Heartbeat CPU 0 instructions: 99000000 cycles: 355482960 heartbeat IPC: 0.226604 cumulative IPC: 0.254682 (Simulation time: 0 hr 53 min 21 sec) 
select_counter is 874
Heartbeat CPU 0 instructions: 100000000 cycles: 359603371 heartbeat IPC: 0.242694 cumulative IPC: 0.254542 (Simulation time: 0 hr 53 min 30 sec) 
select_counter is 873
Heartbeat CPU 0 instructions: 101000003 cycles: 363581975 heartbeat IPC: 0.251345 cumulative IPC: 0.254507 (Simulation time: 0 hr 53 min 37 sec) 
select_counter is 761
Heartbeat CPU 0 instructions: 102000003 cycles: 367611199 heartbeat IPC: 0.248187 cumulative IPC: 0.254436 (Simulation time: 0 hr 53 min 42 sec) 
select_counter is 894
Heartbeat CPU 0 instructions: 103000000 cycles: 371491609 heartbeat IPC: 0.257704 cumulative IPC: 0.254471 (Simulation time: 0 hr 53 min 46 sec) 
select_counter is 852
Heartbeat CPU 0 instructions: 104000000 cycles: 375279301 heartbeat IPC: 0.264013 cumulative IPC: 0.254569 (Simulation time: 0 hr 53 min 50 sec) 
select_counter is 994
Heartbeat CPU 0 instructions: 105000003 cycles: 379222671 heartbeat IPC: 0.253591 cumulative IPC: 0.254559 (Simulation time: 0 hr 53 min 54 sec) 
select_counter is 1009
Heartbeat CPU 0 instructions: 106000001 cycles: 382750822 heartbeat IPC: 0.283434 cumulative IPC: 0.254829 (Simulation time: 0 hr 53 min 58 sec) 
select_counter is 1009
Heartbeat CPU 0 instructions: 107000000 cycles: 386899740 heartbeat IPC: 0.241026 cumulative IPC: 0.254679 (Simulation time: 0 hr 54 min 3 sec) 
select_counter is 926
Heartbeat CPU 0 instructions: 108000000 cycles: 390888630 heartbeat IPC: 0.250696 cumulative IPC: 0.254637 (Simulation time: 0 hr 54 min 7 sec) 
select_counter is 878
Heartbeat CPU 0 instructions: 109000000 cycles: 395331269 heartbeat IPC: 0.225091 cumulative IPC: 0.2543 (Simulation time: 0 hr 54 min 11 sec) 
select_counter is 708
Heartbeat CPU 0 instructions: 110000000 cycles: 399024510 heartbeat IPC: 0.270765 cumulative IPC: 0.254455 (Simulation time: 0 hr 54 min 16 sec) 
select_counter is 743
Finished CPU 0 instructions: 100000000 cycles: 392996766 cummulative IPC: 0.254455 (Simulation time: 0 hr 54 min 16 sec) 

ChampSim completed all CPUs

Region of Interest Statistics

CPU 0 cummulative IPC: 0.254455 instructions: 100000000 cycles: 392996766
LLC TOTAL     ACCESS:    4309195  HIT:    1373128  MISS:    2936067
LLC LOAD      ACCESS:    1523665  HIT:     446137  MISS:    1077528
LLC RFO       ACCESS:     249754  HIT:      84124  MISS:     165630
LLC PREFETCH  ACCESS:    1529781  HIT:     146508  MISS:    1383273
LLC WRITEBACK ACCESS:    1005995  HIT:     696359  MISS:     309636
Ship samples: size is 64
7, 54, 71, 95, 139, 172, 199, 230, 268, 305, 332, 354, 390, 440, 447, 480, 516, 558, 574, 589, 647, 678, 710, 734, 775, 811, 835, 846, 892, 927, 950, 983, 1021, 1060, 1075, 1109, 1153, 1196, 1200, 1220, 1270, 1308, 1325, 1357, 1400, 1448, 1468, 1487, 1513, 1563, 1583, 1610, 1649, 1690, 1716, 1729, 1777, 1819, 1839, 1863, 1908, 1935, 1956, 1974, 
Ship duel samples: size is 96
7, 27, 54, 71, 95, 125, 139, 156, 172, 199, 230, 251, 268, 287, 305, 332, 354, 362, 390, 417, 440, 447, 480, 503, 516, 542, 558, 574, 589, 627, 647, 660, 678, 710, 734, 748, 775, 784, 811, 835, 846, 868, 892, 919, 927, 950, 983, 994, 1021, 1048, 1060, 1075, 1109, 1113, 1153, 1160, 1196, 1200, 1220, 1247, 1270, 1298, 1308, 1325, 1357, 1378, 1400, 1414, 1448, 1468, 1487, 1506, 1513, 1553, 1563, 1583, 1610, 1637, 1649, 1672, 1690, 1716, 1729, 1751, 1777, 1799, 1819, 1839, 1863, 1882, 1908, 1918, 1935, 1956, 1974, 2010, 
Lime duel samples: size is 96
16, 28, 49, 68, 88, 117, 131, 154, 185, 196, 210, 243, 270, 274, 308, 318, 352, 358, 389, 413, 428, 444, 467, 485, 523, 534, 551, 571, 594, 611, 632, 652, 679, 700, 720, 746, 774, 787, 814, 833, 855, 877, 885, 916, 941, 960, 982, 997, 1023, 1033, 1054, 1071, 1099, 1120, 1134, 1161, 1190, 1203, 1226, 1259, 1268, 1289, 1321, 1336, 1359, 1368, 1389, 1419, 1439, 1466, 1473, 1496, 1522, 1537, 1572, 1580, 1614, 1631, 1653, 1671, 1696, 1718, 1734, 1746, 1767, 1798, 1815, 1844, 1865, 1884, 1904, 1913, 1934, 1966, 1989, 2012, 
Lime samples: size is 15
16, 131, 270, 389, 523, 632, 774, 885, 1023, 1134, 1268, 1389, 1522, 1653, 1767, 
Insertion Distribution: 
	LOAD 19346 0 0 0 0 0 43750 112513 
	RFO 7656 0 0 0 0 0 12678 5500 
	PREF 0 1106 0 0 0 0 32356 199155 
	WRITEBACK 0 0 0 0 0 0 0 53818 
Total Prefetch Downgrades: 5096
