
*** ChampSim Multicore Out-of-Order Simulator ***

Warmup Instructions: 10000000
Simulation Instructions: 100000000
Configuration: 2
Number of CPUs: 1
LLC sets: 2048
LLC ways: 16
Off-chip DRAM Channels: 1 Width: 64-bit Data Rate: 1600 MT/s

CPU 0 runs /datasets/cs240c-wi22-a00-public/data/Assignment2-gz/astar_163B.trace.gz
CPU 0 L1D next line prefetcher
CPU 0 L2C IP-based stride prefetcher
Heartbeat CPU 0 instructions: 1000002 cycles: 531212 heartbeat IPC: 1.88249 cumulative IPC: 1.88249 (Simulation time: 0 hr 0 min 27 sec) 
select_counter is 488
Heartbeat CPU 0 instructions: 2000003 cycles: 1060827 heartbeat IPC: 1.88817 cumulative IPC: 1.88532 (Simulation time: 0 hr 0 min 52 sec) 
select_counter is 378
Heartbeat CPU 0 instructions: 3000003 cycles: 1590864 heartbeat IPC: 1.88666 cumulative IPC: 1.88577 (Simulation time: 0 hr 1 min 19 sec) 
select_counter is 295
Heartbeat CPU 0 instructions: 4000000 cycles: 2120966 heartbeat IPC: 1.88642 cumulative IPC: 1.88593 (Simulation time: 0 hr 1 min 44 sec) 
select_counter is 147
Heartbeat CPU 0 instructions: 5000000 cycles: 2652879 heartbeat IPC: 1.88001 cumulative IPC: 1.88474 (Simulation time: 0 hr 2 min 15 sec) 
select_counter is 101
Heartbeat CPU 0 instructions: 6000002 cycles: 3181392 heartbeat IPC: 1.8921 cumulative IPC: 1.88597 (Simulation time: 0 hr 2 min 42 sec) 
select_counter is 17
Heartbeat CPU 0 instructions: 7000003 cycles: 3710928 heartbeat IPC: 1.88845 cumulative IPC: 1.88632 (Simulation time: 0 hr 3 min 9 sec) 
select_counter is 983
Heartbeat CPU 0 instructions: 8000000 cycles: 4240216 heartbeat IPC: 1.88932 cumulative IPC: 1.8867 (Simulation time: 0 hr 3 min 37 sec) 
select_counter is 936
Heartbeat CPU 0 instructions: 9000000 cycles: 4771222 heartbeat IPC: 1.88322 cumulative IPC: 1.88631 (Simulation time: 0 hr 4 min 4 sec) 
select_counter is 946
Heartbeat CPU 0 instructions: 10000001 cycles: 5301302 heartbeat IPC: 1.88651 cumulative IPC: 1.88633 (Simulation time: 0 hr 4 min 31 sec) 
select_counter is 930

Warmup complete CPU 0 instructions: 10000001 cycles: 5301302 (Simulation time: 0 hr 4 min 31 sec) 

Heartbeat CPU 0 instructions: 11000003 cycles: 7534400 heartbeat IPC: 0.447809 cumulative IPC: 0.447809 (Simulation time: 0 hr 5 min 1 sec) 
select_counter is 946
Heartbeat CPU 0 instructions: 12000000 cycles: 9787917 heartbeat IPC: 0.443749 cumulative IPC: 0.44577 (Simulation time: 0 hr 5 min 32 sec) 
select_counter is 975
Heartbeat CPU 0 instructions: 13000000 cycles: 12039181 heartbeat IPC: 0.444195 cumulative IPC: 0.445244 (Simulation time: 0 hr 6 min 3 sec) 
select_counter is 967
Heartbeat CPU 0 instructions: 14000000 cycles: 14291496 heartbeat IPC: 0.443988 cumulative IPC: 0.444929 (Simulation time: 0 hr 6 min 35 sec) 
select_counter is 985
Heartbeat CPU 0 instructions: 15000000 cycles: 16600407 heartbeat IPC: 0.433105 cumulative IPC: 0.442513 (Simulation time: 0 hr 7 min 5 sec) 
select_counter is 1011
Heartbeat CPU 0 instructions: 16000000 cycles: 18953532 heartbeat IPC: 0.424967 cumulative IPC: 0.439489 (Simulation time: 0 hr 7 min 33 sec) 
select_counter is 1019
Heartbeat CPU 0 instructions: 17000003 cycles: 21263727 heartbeat IPC: 0.432865 cumulative IPC: 0.43853 (Simulation time: 0 hr 8 min 4 sec) 
select_counter is 1001
Heartbeat CPU 0 instructions: 18000002 cycles: 23555696 heartbeat IPC: 0.436306 cumulative IPC: 0.438251 (Simulation time: 0 hr 8 min 34 sec) 
select_counter is 978
Heartbeat CPU 0 instructions: 19000000 cycles: 25848989 heartbeat IPC: 0.436053 cumulative IPC: 0.438005 (Simulation time: 0 hr 9 min 5 sec) 
select_counter is 991
Heartbeat CPU 0 instructions: 20000000 cycles: 28141967 heartbeat IPC: 0.436114 cumulative IPC: 0.437816 (Simulation time: 0 hr 9 min 33 sec) 
select_counter is 1015
Heartbeat CPU 0 instructions: 21000003 cycles: 30478212 heartbeat IPC: 0.428039 cumulative IPC: 0.436908 (Simulation time: 0 hr 10 min 7 sec) 
select_counter is 993
Heartbeat CPU 0 instructions: 22000002 cycles: 32924843 heartbeat IPC: 0.408725 cumulative IPC: 0.434412 (Simulation time: 0 hr 10 min 38 sec) 
select_counter is 1014
Heartbeat CPU 0 instructions: 23000001 cycles: 35333855 heartbeat IPC: 0.415108 cumulative IPC: 0.432864 (Simulation time: 0 hr 11 min 8 sec) 
select_counter is 1023
Heartbeat CPU 0 instructions: 24000000 cycles: 37755738 heartbeat IPC: 0.412901 cumulative IPC: 0.431374 (Simulation time: 0 hr 11 min 38 sec) 
select_counter is 1023
Heartbeat CPU 0 instructions: 25000003 cycles: 39911881 heartbeat IPC: 0.463793 cumulative IPC: 0.433394 (Simulation time: 0 hr 12 min 6 sec) 
select_counter is 995
Heartbeat CPU 0 instructions: 26000003 cycles: 41661201 heartbeat IPC: 0.571651 cumulative IPC: 0.440045 (Simulation time: 0 hr 12 min 35 sec) 
select_counter is 989
Heartbeat CPU 0 instructions: 27000000 cycles: 43486132 heartbeat IPC: 0.547964 cumulative IPC: 0.445203 (Simulation time: 0 hr 13 min 6 sec) 
select_counter is 989
Heartbeat CPU 0 instructions: 28000000 cycles: 45426834 heartbeat IPC: 0.515277 cumulative IPC: 0.448592 (Simulation time: 0 hr 13 min 36 sec) 
select_counter is 1017
Heartbeat CPU 0 instructions: 29000000 cycles: 47362708 heartbeat IPC: 0.516563 cumulative IPC: 0.451721 (Simulation time: 0 hr 14 min 8 sec) 
select_counter is 1022
Heartbeat CPU 0 instructions: 30000000 cycles: 49282546 heartbeat IPC: 0.520877 cumulative IPC: 0.454739 (Simulation time: 0 hr 14 min 37 sec) 
select_counter is 1022
Heartbeat CPU 0 instructions: 31000001 cycles: 51148896 heartbeat IPC: 0.535806 cumulative IPC: 0.458039 (Simulation time: 0 hr 15 min 8 sec) 
select_counter is 1022
Heartbeat CPU 0 instructions: 32000000 cycles: 53053900 heartbeat IPC: 0.524933 cumulative IPC: 0.460708 (Simulation time: 0 hr 15 min 39 sec) 
select_counter is 1023
Heartbeat CPU 0 instructions: 33000000 cycles: 54939044 heartbeat IPC: 0.530463 cumulative IPC: 0.463357 (Simulation time: 0 hr 16 min 9 sec) 
select_counter is 1016
Heartbeat CPU 0 instructions: 34000001 cycles: 56794400 heartbeat IPC: 0.538981 cumulative IPC: 0.466082 (Simulation time: 0 hr 16 min 40 sec) 
select_counter is 1023
Heartbeat CPU 0 instructions: 35000001 cycles: 58657787 heartbeat IPC: 0.536657 cumulative IPC: 0.468547 (Simulation time: 0 hr 17 min 18 sec) 
select_counter is 1023
Heartbeat CPU 0 instructions: 36000000 cycles: 60516822 heartbeat IPC: 0.537913 cumulative IPC: 0.470882 (Simulation time: 0 hr 17 min 49 sec) 
select_counter is 1023
Heartbeat CPU 0 instructions: 37000000 cycles: 62437444 heartbeat IPC: 0.520665 cumulative IPC: 0.472556 (Simulation time: 0 hr 18 min 20 sec) 
select_counter is 1023
Heartbeat CPU 0 instructions: 38000000 cycles: 64306354 heartbeat IPC: 0.535071 cumulative IPC: 0.474536 (Simulation time: 0 hr 18 min 52 sec) 
select_counter is 1023
Heartbeat CPU 0 instructions: 39000001 cycles: 66134206 heartbeat IPC: 0.547091 cumulative IPC: 0.476716 (Simulation time: 0 hr 19 min 25 sec) 
select_counter is 1023
Heartbeat CPU 0 instructions: 40000000 cycles: 67993157 heartbeat IPC: 0.537937 cumulative IPC: 0.478531 (Simulation time: 0 hr 19 min 56 sec) 
select_counter is 1023
Heartbeat CPU 0 instructions: 41000001 cycles: 69891742 heartbeat IPC: 0.526709 cumulative IPC: 0.479947 (Simulation time: 0 hr 20 min 29 sec) 
select_counter is 1023
Heartbeat CPU 0 instructions: 42000001 cycles: 71834073 heartbeat IPC: 0.514845 cumulative IPC: 0.480966 (Simulation time: 0 hr 20 min 55 sec) 
select_counter is 1022
Heartbeat CPU 0 instructions: 43000001 cycles: 73811623 heartbeat IPC: 0.505676 cumulative IPC: 0.481679 (Simulation time: 0 hr 21 min 25 sec) 
select_counter is 1023
Heartbeat CPU 0 instructions: 44000000 cycles: 75806445 heartbeat IPC: 0.501297 cumulative IPC: 0.482234 (Simulation time: 0 hr 21 min 54 sec) 
select_counter is 1023
Heartbeat CPU 0 instructions: 45000000 cycles: 77825292 heartbeat IPC: 0.495332 cumulative IPC: 0.482599 (Simulation time: 0 hr 22 min 22 sec) 
select_counter is 1021
Heartbeat CPU 0 instructions: 46000002 cycles: 79718988 heartbeat IPC: 0.528069 cumulative IPC: 0.483756 (Simulation time: 0 hr 22 min 56 sec) 
select_counter is 1023
Heartbeat CPU 0 instructions: 47000000 cycles: 81612200 heartbeat IPC: 0.528202 cumulative IPC: 0.484859 (Simulation time: 0 hr 23 min 27 sec) 
select_counter is 1023
Heartbeat CPU 0 instructions: 48000000 cycles: 83525231 heartbeat IPC: 0.522731 cumulative IPC: 0.485785 (Simulation time: 0 hr 24 min 0 sec) 
select_counter is 1022
Heartbeat CPU 0 instructions: 49000003 cycles: 85466948 heartbeat IPC: 0.51501 cumulative IPC: 0.486493 (Simulation time: 0 hr 24 min 30 sec) 
select_counter is 1023
Heartbeat CPU 0 instructions: 50000001 cycles: 87372891 heartbeat IPC: 0.524674 cumulative IPC: 0.487379 (Simulation time: 0 hr 24 min 57 sec) 
select_counter is 1019
Heartbeat CPU 0 instructions: 51000003 cycles: 89300554 heartbeat IPC: 0.518764 cumulative IPC: 0.4881 (Simulation time: 0 hr 25 min 28 sec) 
select_counter is 1021
Heartbeat CPU 0 instructions: 52000000 cycles: 91306774 heartbeat IPC: 0.498448 cumulative IPC: 0.488341 (Simulation time: 0 hr 26 min 0 sec) 
select_counter is 1022
Heartbeat CPU 0 instructions: 53000001 cycles: 93264482 heartbeat IPC: 0.510802 cumulative IPC: 0.488841 (Simulation time: 0 hr 26 min 29 sec) 
select_counter is 1023
Heartbeat CPU 0 instructions: 54000003 cycles: 95156002 heartbeat IPC: 0.528676 cumulative IPC: 0.489679 (Simulation time: 0 hr 27 min 2 sec) 
select_counter is 1023
Heartbeat CPU 0 instructions: 55000000 cycles: 97024362 heartbeat IPC: 0.535227 cumulative IPC: 0.490607 (Simulation time: 0 hr 27 min 37 sec) 
select_counter is 1022
Heartbeat CPU 0 instructions: 56000000 cycles: 98901994 heartbeat IPC: 0.532586 cumulative IPC: 0.491449 (Simulation time: 0 hr 28 min 15 sec) 
select_counter is 1023
Heartbeat CPU 0 instructions: 57000000 cycles: 100759910 heartbeat IPC: 0.538237 cumulative IPC: 0.49236 (Simulation time: 0 hr 28 min 50 sec) 
select_counter is 1022
Heartbeat CPU 0 instructions: 58000001 cycles: 102674342 heartbeat IPC: 0.522349 cumulative IPC: 0.49295 (Simulation time: 0 hr 29 min 25 sec) 
select_counter is 1015
Heartbeat CPU 0 instructions: 59000003 cycles: 104561397 heartbeat IPC: 0.529927 cumulative IPC: 0.493653 (Simulation time: 0 hr 30 min 0 sec) 
select_counter is 1019
Heartbeat CPU 0 instructions: 60000000 cycles: 106442321 heartbeat IPC: 0.531652 cumulative IPC: 0.494359 (Simulation time: 0 hr 30 min 35 sec) 
select_counter is 995
Heartbeat CPU 0 instructions: 61000002 cycles: 108327751 heartbeat IPC: 0.530384 cumulative IPC: 0.495019 (Simulation time: 0 hr 31 min 13 sec) 
select_counter is 1022
Heartbeat CPU 0 instructions: 62000001 cycles: 110218829 heartbeat IPC: 0.528798 cumulative IPC: 0.495627 (Simulation time: 0 hr 31 min 50 sec) 
select_counter is 1023
Heartbeat CPU 0 instructions: 63000001 cycles: 112253321 heartbeat IPC: 0.491523 cumulative IPC: 0.495549 (Simulation time: 0 hr 32 min 22 sec) 
select_counter is 1019
Heartbeat CPU 0 instructions: 64000000 cycles: 114204181 heartbeat IPC: 0.512594 cumulative IPC: 0.495855 (Simulation time: 0 hr 32 min 54 sec) 
select_counter is 1022
Heartbeat CPU 0 instructions: 65000000 cycles: 116144349 heartbeat IPC: 0.515419 cumulative IPC: 0.496197 (Simulation time: 0 hr 33 min 29 sec) 
select_counter is 1023
Heartbeat CPU 0 instructions: 66000000 cycles: 118092236 heartbeat IPC: 0.513377 cumulative IPC: 0.496494 (Simulation time: 0 hr 34 min 3 sec) 
select_counter is 1021
Heartbeat CPU 0 instructions: 67000003 cycles: 120024740 heartbeat IPC: 0.517465 cumulative IPC: 0.496847 (Simulation time: 0 hr 34 min 36 sec) 
select_counter is 1021
Heartbeat CPU 0 instructions: 68000000 cycles: 121945553 heartbeat IPC: 0.520611 cumulative IPC: 0.497238 (Simulation time: 0 hr 35 min 9 sec) 
select_counter is 1022
Heartbeat CPU 0 instructions: 69000000 cycles: 123870728 heartbeat IPC: 0.519433 cumulative IPC: 0.497599 (Simulation time: 0 hr 35 min 45 sec) 
select_counter is 1023
Heartbeat CPU 0 instructions: 70000003 cycles: 125813926 heartbeat IPC: 0.514617 cumulative IPC: 0.497873 (Simulation time: 0 hr 36 min 19 sec) 
select_counter is 1023
Heartbeat CPU 0 instructions: 71000001 cycles: 127759344 heartbeat IPC: 0.514027 cumulative IPC: 0.49813 (Simulation time: 0 hr 36 min 54 sec) 
select_counter is 1021
Heartbeat CPU 0 instructions: 72000000 cycles: 129703467 heartbeat IPC: 0.51437 cumulative IPC: 0.498384 (Simulation time: 0 hr 37 min 27 sec) 
select_counter is 1022
Heartbeat CPU 0 instructions: 73000000 cycles: 131645494 heartbeat IPC: 0.514926 cumulative IPC: 0.498638 (Simulation time: 0 hr 38 min 0 sec) 
select_counter is 1022
Heartbeat CPU 0 instructions: 74000000 cycles: 133576032 heartbeat IPC: 0.51799 cumulative IPC: 0.498929 (Simulation time: 0 hr 38 min 34 sec) 
select_counter is 1023
Heartbeat CPU 0 instructions: 75000001 cycles: 135482018 heartbeat IPC: 0.524663 cumulative IPC: 0.499306 (Simulation time: 0 hr 39 min 10 sec) 
select_counter is 1020
Heartbeat CPU 0 instructions: 76000000 cycles: 137411559 heartbeat IPC: 0.518257 cumulative IPC: 0.499583 (Simulation time: 0 hr 39 min 47 sec) 
select_counter is 1023
Heartbeat CPU 0 instructions: 77000001 cycles: 139446396 heartbeat IPC: 0.49144 cumulative IPC: 0.499459 (Simulation time: 0 hr 40 min 16 sec) 
select_counter is 1021
Heartbeat CPU 0 instructions: 78000000 cycles: 141415419 heartbeat IPC: 0.507866 cumulative IPC: 0.499581 (Simulation time: 0 hr 40 min 47 sec) 
select_counter is 1023
Heartbeat CPU 0 instructions: 79000003 cycles: 143468464 heartbeat IPC: 0.487083 cumulative IPC: 0.499395 (Simulation time: 0 hr 41 min 15 sec) 
select_counter is 1022
Heartbeat CPU 0 instructions: 80000000 cycles: 145549980 heartbeat IPC: 0.480418 cumulative IPC: 0.499113 (Simulation time: 0 hr 41 min 44 sec) 
select_counter is 1023
Heartbeat CPU 0 instructions: 81000003 cycles: 147631847 heartbeat IPC: 0.48034 cumulative IPC: 0.498839 (Simulation time: 0 hr 42 min 15 sec) 
select_counter is 998
Heartbeat CPU 0 instructions: 82000000 cycles: 149668568 heartbeat IPC: 0.490984 cumulative IPC: 0.498728 (Simulation time: 0 hr 42 min 44 sec) 
select_counter is 1023
Heartbeat CPU 0 instructions: 83000000 cycles: 151655913 heartbeat IPC: 0.503184 cumulative IPC: 0.498789 (Simulation time: 0 hr 43 min 16 sec) 
select_counter is 1020
Heartbeat CPU 0 instructions: 84000000 cycles: 153632793 heartbeat IPC: 0.505848 cumulative IPC: 0.498883 (Simulation time: 0 hr 43 min 46 sec) 
select_counter is 1023
Heartbeat CPU 0 instructions: 85000001 cycles: 155606897 heartbeat IPC: 0.506559 cumulative IPC: 0.498983 (Simulation time: 0 hr 44 min 17 sec) 
select_counter is 1023
Heartbeat CPU 0 instructions: 86000002 cycles: 157572429 heartbeat IPC: 0.508769 cumulative IPC: 0.49911 (Simulation time: 0 hr 44 min 46 sec) 
select_counter is 1023
Heartbeat CPU 0 instructions: 87000000 cycles: 159574497 heartbeat IPC: 0.499483 cumulative IPC: 0.499115 (Simulation time: 0 hr 45 min 11 sec) 
select_counter is 1021
Heartbeat CPU 0 instructions: 88000000 cycles: 161622329 heartbeat IPC: 0.488321 cumulative IPC: 0.498973 (Simulation time: 0 hr 45 min 35 sec) 
select_counter is 1019
Heartbeat CPU 0 instructions: 89000003 cycles: 163610022 heartbeat IPC: 0.503097 cumulative IPC: 0.499025 (Simulation time: 0 hr 46 min 1 sec) 
select_counter is 1022
Heartbeat CPU 0 instructions: 90000000 cycles: 165581255 heartbeat IPC: 0.507295 cumulative IPC: 0.499127 (Simulation time: 0 hr 46 min 26 sec) 
select_counter is 987
Heartbeat CPU 0 instructions: 91000000 cycles: 167556926 heartbeat IPC: 0.506157 cumulative IPC: 0.499212 (Simulation time: 0 hr 46 min 50 sec) 
select_counter is 979
Heartbeat CPU 0 instructions: 92000000 cycles: 169540266 heartbeat IPC: 0.5042 cumulative IPC: 0.499272 (Simulation time: 0 hr 47 min 11 sec) 
select_counter is 1023
Heartbeat CPU 0 instructions: 93000003 cycles: 171492806 heartbeat IPC: 0.512155 cumulative IPC: 0.499424 (Simulation time: 0 hr 47 min 32 sec) 
select_counter is 1023
Heartbeat CPU 0 instructions: 94000000 cycles: 173429320 heartbeat IPC: 0.51639 cumulative IPC: 0.499619 (Simulation time: 0 hr 47 min 55 sec) 
select_counter is 1021
Heartbeat CPU 0 instructions: 95000000 cycles: 175395041 heartbeat IPC: 0.508719 cumulative IPC: 0.499724 (Simulation time: 0 hr 48 min 16 sec) 
select_counter is 1022
Heartbeat CPU 0 instructions: 96000000 cycles: 177391266 heartbeat IPC: 0.500946 cumulative IPC: 0.499739 (Simulation time: 0 hr 48 min 34 sec) 
select_counter is 1013
Heartbeat CPU 0 instructions: 97000000 cycles: 179391433 heartbeat IPC: 0.499958 cumulative IPC: 0.499741 (Simulation time: 0 hr 48 min 51 sec) 
select_counter is 1019
Heartbeat CPU 0 instructions: 98000000 cycles: 181369785 heartbeat IPC: 0.505471 cumulative IPC: 0.499806 (Simulation time: 0 hr 49 min 10 sec) 
select_counter is 1023
Heartbeat CPU 0 instructions: 99000000 cycles: 183432869 heartbeat IPC: 0.484711 cumulative IPC: 0.499631 (Simulation time: 0 hr 49 min 28 sec) 
select_counter is 1022
Heartbeat CPU 0 instructions: 100000000 cycles: 185424371 heartbeat IPC: 0.502134 cumulative IPC: 0.499658 (Simulation time: 0 hr 49 min 44 sec) 
select_counter is 1014
Heartbeat CPU 0 instructions: 101000000 cycles: 187456410 heartbeat IPC: 0.492117 cumulative IPC: 0.499574 (Simulation time: 0 hr 50 min 1 sec) 
select_counter is 1021
Heartbeat CPU 0 instructions: 102000003 cycles: 189454157 heartbeat IPC: 0.500565 cumulative IPC: 0.499585 (Simulation time: 0 hr 50 min 17 sec) 
select_counter is 1023
Heartbeat CPU 0 instructions: 103000000 cycles: 191402924 heartbeat IPC: 0.513143 cumulative IPC: 0.499727 (Simulation time: 0 hr 50 min 33 sec) 
select_counter is 1005
Heartbeat CPU 0 instructions: 104000000 cycles: 193346288 heartbeat IPC: 0.514572 cumulative IPC: 0.49988 (Simulation time: 0 hr 50 min 48 sec) 
select_counter is 1019
Heartbeat CPU 0 instructions: 105000002 cycles: 195284863 heartbeat IPC: 0.515844 cumulative IPC: 0.500043 (Simulation time: 0 hr 51 min 3 sec) 
select_counter is 1021
Heartbeat CPU 0 instructions: 106000003 cycles: 197217118 heartbeat IPC: 0.517531 cumulative IPC: 0.500219 (Simulation time: 0 hr 51 min 17 sec) 
select_counter is 1021
Heartbeat CPU 0 instructions: 107000000 cycles: 199165704 heartbeat IPC: 0.513191 cumulative IPC: 0.50035 (Simulation time: 0 hr 51 min 30 sec) 
select_counter is 1022
Heartbeat CPU 0 instructions: 108000000 cycles: 201218315 heartbeat IPC: 0.487184 cumulative IPC: 0.500212 (Simulation time: 0 hr 51 min 40 sec) 
select_counter is 1020
Heartbeat CPU 0 instructions: 109000003 cycles: 203242523 heartbeat IPC: 0.494022 cumulative IPC: 0.500148 (Simulation time: 0 hr 51 min 51 sec) 
select_counter is 1021
Heartbeat CPU 0 instructions: 110000002 cycles: 205245652 heartbeat IPC: 0.499218 cumulative IPC: 0.500139 (Simulation time: 0 hr 52 min 2 sec) 
select_counter is 1009
Finished CPU 0 instructions: 100000001 cycles: 199944350 cummulative IPC: 0.500139 (Simulation time: 0 hr 52 min 2 sec) 

ChampSim completed all CPUs

Region of Interest Statistics

CPU 0 cummulative IPC: 0.500139 instructions: 100000001 cycles: 199944350
LLC TOTAL     ACCESS:     479204  HIT:     276357  MISS:     202847
LLC LOAD      ACCESS:     108311  HIT:      60644  MISS:      47667
LLC RFO       ACCESS:      72100  HIT:      39385  MISS:      32715
LLC PREFETCH  ACCESS:     138933  HIT:      47333  MISS:      91600
LLC WRITEBACK ACCESS:     159860  HIT:     128995  MISS:      30865
Ship samples: size is 64
7, 62, 83, 100, 140, 179, 203, 218, 261, 310, 319, 336, 395, 429, 457, 473, 509, 549, 586, 597, 633, 685, 695, 734, 772, 808, 826, 860, 899, 933, 964, 971, 1021, 1058, 1087, 1107, 1134, 1181, 1214, 1235, 1280, 1312, 1343, 1362, 1399, 1448, 1449, 1477, 1527, 1573, 1586, 1615, 1641, 1689, 1715, 1731, 1776, 1821, 1834, 1859, 1894, 1933, 1957, 1980, 
Ship duel samples: size is 96
7, 39, 62, 83, 100, 113, 140, 161, 179, 203, 218, 236, 261, 281, 310, 319, 336, 365, 395, 416, 429, 457, 473, 500, 509, 541, 549, 586, 597, 625, 633, 657, 685, 695, 734, 736, 772, 790, 808, 826, 860, 876, 899, 910, 933, 964, 971, 1004, 1021, 1032, 1058, 1087, 1107, 1115, 1134, 1165, 1181, 1214, 1235, 1259, 1280, 1281, 1312, 1343, 1362, 1374, 1399, 1415, 1448, 1449, 1477, 1503, 1527, 1547, 1573, 1586, 1615, 1631, 1641, 1677, 1689, 1715, 1731, 1754, 1776, 1802, 1821, 1834, 1859, 1881, 1894, 1922, 1933, 1957, 1980, 2004, 
Lime duel samples: size is 96
9, 30, 43, 80, 96, 121, 135, 163, 175, 196, 222, 240, 252, 285, 295, 328, 350, 361, 383, 403, 428, 460, 479, 488, 517, 544, 564, 581, 595, 609, 634, 667, 679, 697, 726, 754, 776, 797, 811, 824, 846, 865, 896, 907, 940, 958, 983, 994, 1026, 1030, 1061, 1076, 1110, 1121, 1142, 1164, 1180, 1201, 1220, 1249, 1262, 1286, 1307, 1332, 1353, 1381, 1392, 1413, 1441, 1468, 1481, 1508, 1512, 1536, 1554, 1590, 1612, 1633, 1639, 1670, 1697, 1714, 1737, 1756, 1783, 1785, 1807, 1827, 1852, 1870, 1900, 1915, 1938, 1967, 1988, 2008, 
Lime samples: size is 15
9, 135, 252, 383, 517, 634, 776, 896, 1026, 1142, 1262, 1392, 1512, 1639, 1783, 
Insertion Distribution: 
	LOAD 7433 0 0 0 0 0 4085 1095 
	RFO 687 0 0 0 0 0 1695 2782 
	PREF 0 3626 0 0 0 0 9962 4995 
	WRITEBACK 0 0 0 0 0 0 0 4245 
Total Prefetch Downgrades: 975
