
*** ChampSim Multicore Out-of-Order Simulator ***

Warmup Instructions: 10000000
Simulation Instructions: 100000000
Configuration: 2
Number of CPUs: 1
LLC sets: 2048
LLC ways: 16
Off-chip DRAM Channels: 1 Width: 64-bit Data Rate: 1600 MT/s

CPU 0 runs /datasets/cs240c-wi22-a00-public/data/Assignment2-gz/sphinx3_883B.trace.gz
CPU 0 L1D next line prefetcher
CPU 0 L2C IP-based stride prefetcher
Initialize SRRIP state
Heartbeat CPU 0 instructions: 1000003 cycles: 414388 heartbeat IPC: 2.4132 cumulative IPC: 2.4132 (Simulation time: 0 hr 0 min 29 sec) 
Heartbeat CPU 0 instructions: 2000000 cycles: 823945 heartbeat IPC: 2.44166 cumulative IPC: 2.42735 (Simulation time: 0 hr 0 min 57 sec) 
Heartbeat CPU 0 instructions: 3000003 cycles: 1298783 heartbeat IPC: 2.10599 cumulative IPC: 2.30986 (Simulation time: 0 hr 1 min 25 sec) 
Heartbeat CPU 0 instructions: 4000000 cycles: 1637673 heartbeat IPC: 2.9508 cumulative IPC: 2.44249 (Simulation time: 0 hr 1 min 51 sec) 
Heartbeat CPU 0 instructions: 5000000 cycles: 1992323 heartbeat IPC: 2.81968 cumulative IPC: 2.50963 (Simulation time: 0 hr 2 min 16 sec) 
Heartbeat CPU 0 instructions: 6000003 cycles: 2406748 heartbeat IPC: 2.41299 cumulative IPC: 2.49299 (Simulation time: 0 hr 2 min 45 sec) 
Heartbeat CPU 0 instructions: 7000002 cycles: 2815528 heartbeat IPC: 2.4463 cumulative IPC: 2.48621 (Simulation time: 0 hr 3 min 14 sec) 
Heartbeat CPU 0 instructions: 8000000 cycles: 3291694 heartbeat IPC: 2.1001 cumulative IPC: 2.43036 (Simulation time: 0 hr 3 min 40 sec) 
Heartbeat CPU 0 instructions: 9000001 cycles: 3630694 heartbeat IPC: 2.94986 cumulative IPC: 2.47887 (Simulation time: 0 hr 4 min 6 sec) 
Heartbeat CPU 0 instructions: 10000000 cycles: 3984765 heartbeat IPC: 2.82429 cumulative IPC: 2.50956 (Simulation time: 0 hr 4 min 31 sec) 

Warmup complete CPU 0 instructions: 10000004 cycles: 3984766 (Simulation time: 0 hr 4 min 31 sec) 

Heartbeat CPU 0 instructions: 11000002 cycles: 5716537 heartbeat IPC: 0.577444 cumulative IPC: 0.577442 (Simulation time: 0 hr 5 min 8 sec) 
Heartbeat CPU 0 instructions: 12000000 cycles: 7337988 heartbeat IPC: 0.61673 cumulative IPC: 0.59644 (Simulation time: 0 hr 5 min 38 sec) 
Heartbeat CPU 0 instructions: 13000001 cycles: 8523702 heartbeat IPC: 0.843375 cumulative IPC: 0.660947 (Simulation time: 0 hr 6 min 5 sec) 
Heartbeat CPU 0 instructions: 14000002 cycles: 9269834 heartbeat IPC: 1.34025 cumulative IPC: 0.756849 (Simulation time: 0 hr 6 min 35 sec) 
Heartbeat CPU 0 instructions: 15000000 cycles: 10136294 heartbeat IPC: 1.15412 cumulative IPC: 0.812806 (Simulation time: 0 hr 7 min 3 sec) 
Heartbeat CPU 0 instructions: 16000000 cycles: 11850094 heartbeat IPC: 0.583499 cumulative IPC: 0.762841 (Simulation time: 0 hr 7 min 35 sec) 
Heartbeat CPU 0 instructions: 17000000 cycles: 13459359 heartbeat IPC: 0.621402 cumulative IPC: 0.738818 (Simulation time: 0 hr 8 min 6 sec) 
Heartbeat CPU 0 instructions: 18000002 cycles: 14732356 heartbeat IPC: 0.785549 cumulative IPC: 0.744353 (Simulation time: 0 hr 8 min 35 sec) 
Heartbeat CPU 0 instructions: 19000003 cycles: 15557544 heartbeat IPC: 1.21185 cumulative IPC: 0.777687 (Simulation time: 0 hr 9 min 4 sec) 
Heartbeat CPU 0 instructions: 20000000 cycles: 16333453 heartbeat IPC: 1.28881 cumulative IPC: 0.809802 (Simulation time: 0 hr 9 min 37 sec) 
Heartbeat CPU 0 instructions: 21000000 cycles: 17935132 heartbeat IPC: 0.624345 cumulative IPC: 0.788509 (Simulation time: 0 hr 10 min 9 sec) 
Heartbeat CPU 0 instructions: 22000002 cycles: 19575208 heartbeat IPC: 0.609729 cumulative IPC: 0.769702 (Simulation time: 0 hr 10 min 43 sec) 
Heartbeat CPU 0 instructions: 23000001 cycles: 21103841 heartbeat IPC: 0.654179 cumulative IPC: 0.759387 (Simulation time: 0 hr 11 min 15 sec) 
Heartbeat CPU 0 instructions: 24000000 cycles: 21983151 heartbeat IPC: 1.13725 cumulative IPC: 0.777847 (Simulation time: 0 hr 11 min 44 sec) 
Heartbeat CPU 0 instructions: 25000001 cycles: 22791495 heartbeat IPC: 1.2371 cumulative IPC: 0.797587 (Simulation time: 0 hr 12 min 12 sec) 
Heartbeat CPU 0 instructions: 26000001 cycles: 24043934 heartbeat IPC: 0.798442 cumulative IPC: 0.79764 (Simulation time: 0 hr 12 min 42 sec) 
Heartbeat CPU 0 instructions: 27000001 cycles: 25677697 heartbeat IPC: 0.612084 cumulative IPC: 0.783665 (Simulation time: 0 hr 13 min 17 sec) 
Heartbeat CPU 0 instructions: 28000000 cycles: 27272036 heartbeat IPC: 0.627219 cumulative IPC: 0.772954 (Simulation time: 0 hr 13 min 53 sec) 
Heartbeat CPU 0 instructions: 29000000 cycles: 28281074 heartbeat IPC: 0.991043 cumulative IPC: 0.782012 (Simulation time: 0 hr 14 min 22 sec) 
Heartbeat CPU 0 instructions: 30000002 cycles: 29059543 heartbeat IPC: 1.28458 cumulative IPC: 0.797614 (Simulation time: 0 hr 14 min 50 sec) 
Heartbeat CPU 0 instructions: 31000003 cycles: 30168362 heartbeat IPC: 0.901861 cumulative IPC: 0.802029 (Simulation time: 0 hr 15 min 20 sec) 
Heartbeat CPU 0 instructions: 32000000 cycles: 31797423 heartbeat IPC: 0.613849 cumulative IPC: 0.791007 (Simulation time: 0 hr 15 min 54 sec) 
Heartbeat CPU 0 instructions: 33000000 cycles: 33355224 heartbeat IPC: 0.641931 cumulative IPC: 0.7831 (Simulation time: 0 hr 16 min 28 sec) 
Heartbeat CPU 0 instructions: 34000000 cycles: 34469305 heartbeat IPC: 0.897601 cumulative IPC: 0.787284 (Simulation time: 0 hr 16 min 59 sec) 
Heartbeat CPU 0 instructions: 35000003 cycles: 35233730 heartbeat IPC: 1.30818 cumulative IPC: 0.800026 (Simulation time: 0 hr 17 min 27 sec) 
Heartbeat CPU 0 instructions: 36000000 cycles: 36277995 heartbeat IPC: 0.957608 cumulative IPC: 0.805122 (Simulation time: 0 hr 17 min 56 sec) 
Heartbeat CPU 0 instructions: 37000001 cycles: 37923008 heartbeat IPC: 0.607899 cumulative IPC: 0.795563 (Simulation time: 0 hr 18 min 32 sec) 
Heartbeat CPU 0 instructions: 38000000 cycles: 39485923 heartbeat IPC: 0.639829 cumulative IPC: 0.788707 (Simulation time: 0 hr 19 min 9 sec) 
Heartbeat CPU 0 instructions: 39000003 cycles: 40590325 heartbeat IPC: 0.90547 cumulative IPC: 0.792229 (Simulation time: 0 hr 19 min 39 sec) 
Heartbeat CPU 0 instructions: 40000000 cycles: 41366924 heartbeat IPC: 1.28766 cumulative IPC: 0.802522 (Simulation time: 0 hr 20 min 7 sec) 
Heartbeat CPU 0 instructions: 41000003 cycles: 42403480 heartbeat IPC: 0.964736 cumulative IPC: 0.806898 (Simulation time: 0 hr 20 min 37 sec) 
Heartbeat CPU 0 instructions: 42000000 cycles: 44059792 heartbeat IPC: 0.603749 cumulative IPC: 0.798502 (Simulation time: 0 hr 21 min 11 sec) 
Heartbeat CPU 0 instructions: 43000003 cycles: 45649219 heartbeat IPC: 0.629159 cumulative IPC: 0.792042 (Simulation time: 0 hr 21 min 42 sec) 
Heartbeat CPU 0 instructions: 44000000 cycles: 46685203 heartbeat IPC: 0.965263 cumulative IPC: 0.796245 (Simulation time: 0 hr 22 min 11 sec) 
Heartbeat CPU 0 instructions: 45000002 cycles: 47469959 heartbeat IPC: 1.27428 cumulative IPC: 0.804872 (Simulation time: 0 hr 22 min 40 sec) 
Heartbeat CPU 0 instructions: 46000001 cycles: 48547597 heartbeat IPC: 0.927954 cumulative IPC: 0.807848 (Simulation time: 0 hr 23 min 12 sec) 
Heartbeat CPU 0 instructions: 47000002 cycles: 50187364 heartbeat IPC: 0.609843 cumulative IPC: 0.800821 (Simulation time: 0 hr 23 min 55 sec) 
Heartbeat CPU 0 instructions: 48000000 cycles: 51771362 heartbeat IPC: 0.631313 cumulative IPC: 0.795202 (Simulation time: 0 hr 24 min 34 sec) 
Heartbeat CPU 0 instructions: 49000001 cycles: 52701475 heartbeat IPC: 1.07514 cumulative IPC: 0.800547 (Simulation time: 0 hr 25 min 4 sec) 
Heartbeat CPU 0 instructions: 50000000 cycles: 53505363 heartbeat IPC: 1.24395 cumulative IPC: 0.807745 (Simulation time: 0 hr 25 min 36 sec) 
Heartbeat CPU 0 instructions: 51000003 cycles: 54642969 heartbeat IPC: 0.879042 cumulative IPC: 0.809346 (Simulation time: 0 hr 26 min 9 sec) 
Heartbeat CPU 0 instructions: 52000000 cycles: 56321845 heartbeat IPC: 0.595635 cumulative IPC: 0.80249 (Simulation time: 0 hr 26 min 44 sec) 
Heartbeat CPU 0 instructions: 53000000 cycles: 58116223 heartbeat IPC: 0.557296 cumulative IPC: 0.794362 (Simulation time: 0 hr 27 min 20 sec) 
Heartbeat CPU 0 instructions: 54000003 cycles: 59396374 heartbeat IPC: 0.78116 cumulative IPC: 0.794057 (Simulation time: 0 hr 27 min 53 sec) 
Heartbeat CPU 0 instructions: 55000003 cycles: 60271927 heartbeat IPC: 1.14214 cumulative IPC: 0.799472 (Simulation time: 0 hr 28 min 22 sec) 
Heartbeat CPU 0 instructions: 56000000 cycles: 61148826 heartbeat IPC: 1.14038 cumulative IPC: 0.804701 (Simulation time: 0 hr 28 min 52 sec) 
Heartbeat CPU 0 instructions: 57000002 cycles: 62338002 heartbeat IPC: 0.84092 cumulative IPC: 0.805439 (Simulation time: 0 hr 29 min 35 sec) 
Heartbeat CPU 0 instructions: 58000001 cycles: 63375888 heartbeat IPC: 0.963496 cumulative IPC: 0.808202 (Simulation time: 0 hr 30 min 13 sec) 
Heartbeat CPU 0 instructions: 59000003 cycles: 64224494 heartbeat IPC: 1.17841 cumulative IPC: 0.813417 (Simulation time: 0 hr 30 min 47 sec) 
Heartbeat CPU 0 instructions: 60000000 cycles: 65110817 heartbeat IPC: 1.12825 cumulative IPC: 0.817982 (Simulation time: 0 hr 31 min 24 sec) 
Heartbeat CPU 0 instructions: 61000001 cycles: 66317004 heartbeat IPC: 0.82906 cumulative IPC: 0.818196 (Simulation time: 0 hr 32 min 0 sec) 
Heartbeat CPU 0 instructions: 62000001 cycles: 67168487 heartbeat IPC: 1.17442 cumulative IPC: 0.822997 (Simulation time: 0 hr 32 min 36 sec) 
Heartbeat CPU 0 instructions: 63000003 cycles: 67989940 heartbeat IPC: 1.21736 cumulative IPC: 0.828058 (Simulation time: 0 hr 33 min 10 sec) 
Heartbeat CPU 0 instructions: 64000000 cycles: 69255316 heartbeat IPC: 0.790277 cumulative IPC: 0.827326 (Simulation time: 0 hr 33 min 44 sec) 
Heartbeat CPU 0 instructions: 65000003 cycles: 70119245 heartbeat IPC: 1.15751 cumulative IPC: 0.831639 (Simulation time: 0 hr 34 min 23 sec) 
Heartbeat CPU 0 instructions: 66000002 cycles: 70945857 heartbeat IPC: 1.20976 cumulative IPC: 0.836307 (Simulation time: 0 hr 34 min 54 sec) 
Heartbeat CPU 0 instructions: 67000000 cycles: 72199070 heartbeat IPC: 0.797947 cumulative IPC: 0.835602 (Simulation time: 0 hr 35 min 25 sec) 
Heartbeat CPU 0 instructions: 68000000 cycles: 73857815 heartbeat IPC: 0.602865 cumulative IPC: 0.830077 (Simulation time: 0 hr 35 min 57 sec) 
Heartbeat CPU 0 instructions: 69000003 cycles: 74714195 heartbeat IPC: 1.16771 cumulative IPC: 0.834165 (Simulation time: 0 hr 36 min 25 sec) 
Heartbeat CPU 0 instructions: 70000000 cycles: 75551473 heartbeat IPC: 1.19434 cumulative IPC: 0.838379 (Simulation time: 0 hr 36 min 53 sec) 
Heartbeat CPU 0 instructions: 71000000 cycles: 76709575 heartbeat IPC: 0.863482 cumulative IPC: 0.838778 (Simulation time: 0 hr 37 min 24 sec) 
Heartbeat CPU 0 instructions: 72000000 cycles: 78192109 heartbeat IPC: 0.674521 cumulative IPC: 0.835497 (Simulation time: 0 hr 37 min 57 sec) 
Heartbeat CPU 0 instructions: 73000000 cycles: 79057874 heartbeat IPC: 1.15505 cumulative IPC: 0.839182 (Simulation time: 0 hr 38 min 29 sec) 
Heartbeat CPU 0 instructions: 74000000 cycles: 79911453 heartbeat IPC: 1.17154 cumulative IPC: 0.842918 (Simulation time: 0 hr 39 min 0 sec) 
Heartbeat CPU 0 instructions: 75000000 cycles: 81127980 heartbeat IPC: 0.822012 cumulative IPC: 0.842589 (Simulation time: 0 hr 39 min 31 sec) 
Heartbeat CPU 0 instructions: 76000000 cycles: 82435253 heartbeat IPC: 0.764951 cumulative IPC: 0.841295 (Simulation time: 0 hr 40 min 4 sec) 
Heartbeat CPU 0 instructions: 77000003 cycles: 83260613 heartbeat IPC: 1.2116 cumulative IPC: 0.84515 (Simulation time: 0 hr 40 min 32 sec) 
Heartbeat CPU 0 instructions: 78000000 cycles: 84101999 heartbeat IPC: 1.18851 cumulative IPC: 0.848756 (Simulation time: 0 hr 41 min 6 sec) 
Heartbeat CPU 0 instructions: 79000001 cycles: 85473026 heartbeat IPC: 0.729381 cumulative IPC: 0.846748 (Simulation time: 0 hr 41 min 41 sec) 
Heartbeat CPU 0 instructions: 80000000 cycles: 86636817 heartbeat IPC: 0.85926 cumulative IPC: 0.846924 (Simulation time: 0 hr 42 min 10 sec) 
Heartbeat CPU 0 instructions: 81000000 cycles: 87467135 heartbeat IPC: 1.20436 cumulative IPC: 0.850479 (Simulation time: 0 hr 42 min 42 sec) 
Heartbeat CPU 0 instructions: 82000000 cycles: 88294795 heartbeat IPC: 1.20823 cumulative IPC: 0.853991 (Simulation time: 0 hr 43 min 12 sec) 
Heartbeat CPU 0 instructions: 83000000 cycles: 89795850 heartbeat IPC: 0.666198 cumulative IPC: 0.850706 (Simulation time: 0 hr 43 min 46 sec) 
Heartbeat CPU 0 instructions: 84000000 cycles: 90692250 heartbeat IPC: 1.11557 cumulative IPC: 0.853444 (Simulation time: 0 hr 44 min 15 sec) 
Heartbeat CPU 0 instructions: 85000001 cycles: 91491068 heartbeat IPC: 1.25185 cumulative IPC: 0.857081 (Simulation time: 0 hr 44 min 43 sec) 
Heartbeat CPU 0 instructions: 86000001 cycles: 92552215 heartbeat IPC: 0.942376 cumulative IPC: 0.858103 (Simulation time: 0 hr 45 min 13 sec) 
Heartbeat CPU 0 instructions: 87000000 cycles: 93766444 heartbeat IPC: 0.823567 cumulative IPC: 0.857636 (Simulation time: 0 hr 45 min 43 sec) 
Heartbeat CPU 0 instructions: 88000000 cycles: 94594498 heartbeat IPC: 1.20765 cumulative IPC: 0.860835 (Simulation time: 0 hr 46 min 12 sec) 
Heartbeat CPU 0 instructions: 89000000 cycles: 95413414 heartbeat IPC: 1.22113 cumulative IPC: 0.864062 (Simulation time: 0 hr 46 min 42 sec) 
Heartbeat CPU 0 instructions: 90000000 cycles: 96786884 heartbeat IPC: 0.728083 cumulative IPC: 0.862049 (Simulation time: 0 hr 47 min 12 sec) 
Heartbeat CPU 0 instructions: 91000003 cycles: 98040311 heartbeat IPC: 0.797815 cumulative IPC: 0.861193 (Simulation time: 0 hr 47 min 45 sec) 
Heartbeat CPU 0 instructions: 92000000 cycles: 98984206 heartbeat IPC: 1.05944 cumulative IPC: 0.863163 (Simulation time: 0 hr 48 min 14 sec) 
Heartbeat CPU 0 instructions: 93000000 cycles: 99794255 heartbeat IPC: 1.23449 cumulative IPC: 0.866302 (Simulation time: 0 hr 48 min 45 sec) 
Heartbeat CPU 0 instructions: 94000002 cycles: 100622230 heartbeat IPC: 1.20777 cumulative IPC: 0.869228 (Simulation time: 0 hr 49 min 17 sec) 
Heartbeat CPU 0 instructions: 95000001 cycles: 102063784 heartbeat IPC: 0.693695 cumulative IPC: 0.866648 (Simulation time: 0 hr 49 min 48 sec) 
Heartbeat CPU 0 instructions: 96000000 cycles: 102892104 heartbeat IPC: 1.20726 cumulative IPC: 0.869501 (Simulation time: 0 hr 50 min 18 sec) 
Heartbeat CPU 0 instructions: 97000000 cycles: 103722126 heartbeat IPC: 1.20479 cumulative IPC: 0.872291 (Simulation time: 0 hr 50 min 48 sec) 
Heartbeat CPU 0 instructions: 98000003 cycles: 104954384 heartbeat IPC: 0.811521 cumulative IPC: 0.871549 (Simulation time: 0 hr 51 min 17 sec) 
Heartbeat CPU 0 instructions: 99000000 cycles: 106033439 heartbeat IPC: 0.926734 cumulative IPC: 0.872133 (Simulation time: 0 hr 51 min 46 sec) 
Heartbeat CPU 0 instructions: 100000000 cycles: 106845069 heartbeat IPC: 1.23209 cumulative IPC: 0.874973 (Simulation time: 0 hr 52 min 13 sec) 
Heartbeat CPU 0 instructions: 101000000 cycles: 107674745 heartbeat IPC: 1.20529 cumulative IPC: 0.877616 (Simulation time: 0 hr 52 min 41 sec) 
Heartbeat CPU 0 instructions: 102000003 cycles: 109225044 heartbeat IPC: 0.645039 cumulative IPC: 0.87419 (Simulation time: 0 hr 53 min 11 sec) 
Heartbeat CPU 0 instructions: 103000001 cycles: 110148927 heartbeat IPC: 1.08239 cumulative IPC: 0.876002 (Simulation time: 0 hr 53 min 37 sec) 
Heartbeat CPU 0 instructions: 104000000 cycles: 110954283 heartbeat IPC: 1.24169 cumulative IPC: 0.878755 (Simulation time: 0 hr 54 min 4 sec) 
Heartbeat CPU 0 instructions: 105000002 cycles: 112065177 heartbeat IPC: 0.900178 cumulative IPC: 0.878975 (Simulation time: 0 hr 54 min 32 sec) 
Heartbeat CPU 0 instructions: 106000003 cycles: 113576709 heartbeat IPC: 0.661581 cumulative IPC: 0.875977 (Simulation time: 0 hr 54 min 58 sec) 
Heartbeat CPU 0 instructions: 107000000 cycles: 114418476 heartbeat IPC: 1.18797 cumulative IPC: 0.878355 (Simulation time: 0 hr 55 min 23 sec) 
Heartbeat CPU 0 instructions: 108000000 cycles: 115240107 heartbeat IPC: 1.21709 cumulative IPC: 0.880857 (Simulation time: 0 hr 55 min 48 sec) 
Heartbeat CPU 0 instructions: 109000001 cycles: 116425070 heartbeat IPC: 0.843909 cumulative IPC: 0.880467 (Simulation time: 0 hr 56 min 13 sec) 
Heartbeat CPU 0 instructions: 110000000 cycles: 117834998 heartbeat IPC: 0.709255 cumulative IPC: 0.878347 (Simulation time: 0 hr 56 min 37 sec) 
Finished CPU 0 instructions: 100000000 cycles: 113850233 cummulative IPC: 0.878347 (Simulation time: 0 hr 56 min 37 sec) 

ChampSim completed all CPUs

Region of Interest Statistics

CPU 0 cummulative IPC: 0.878347 instructions: 100000000 cycles: 113850233
LLC TOTAL     ACCESS:    1795761  HIT:     725275  MISS:    1070486
LLC LOAD      ACCESS:     315543  HIT:     202643  MISS:     112900
LLC RFO       ACCESS:      99611  HIT:      77014  MISS:      22597
LLC PREFETCH  ACCESS:    1239186  HIT:     315955  MISS:     923231
LLC WRITEBACK ACCESS:     141421  HIT:     129663  MISS:      11758
Insertion Distribution: 
	LOAD 10458 0 22926 103916 
	RFO 8438 0 5673 12354 
	PREF 0 4681 83448 943360 
	WRITEBACK 0 0 0 12943 
Total Prefetch Downgrades: 6724
