
*** ChampSim Multicore Out-of-Order Simulator ***

Warmup Instructions: 10000000
Simulation Instructions: 100000000
Configuration: 2
Number of CPUs: 1
LLC sets: 2048
LLC ways: 16
Off-chip DRAM Channels: 1 Width: 64-bit Data Rate: 1600 MT/s

CPU 0 runs /datasets/cs240c-wi22-a00-public/data/Assignment2-gz/GemsFDTD_109B.trace.gz
CPU 0 L1D next line prefetcher
CPU 0 L2C IP-based stride prefetcher
Initialize SRRIP state
Heartbeat CPU 0 instructions: 1000002 cycles: 579772 heartbeat IPC: 1.72482 cumulative IPC: 1.72482 (Simulation time: 0 hr 0 min 39 sec) 
Heartbeat CPU 0 instructions: 2000001 cycles: 1159543 heartbeat IPC: 1.72482 cumulative IPC: 1.72482 (Simulation time: 0 hr 1 min 19 sec) 
Heartbeat CPU 0 instructions: 3000000 cycles: 1738739 heartbeat IPC: 1.72653 cumulative IPC: 1.72539 (Simulation time: 0 hr 2 min 0 sec) 
Heartbeat CPU 0 instructions: 4000000 cycles: 2317733 heartbeat IPC: 1.72713 cumulative IPC: 1.72582 (Simulation time: 0 hr 2 min 37 sec) 
Heartbeat CPU 0 instructions: 5000000 cycles: 2897548 heartbeat IPC: 1.72469 cumulative IPC: 1.7256 (Simulation time: 0 hr 3 min 15 sec) 
Heartbeat CPU 0 instructions: 6000002 cycles: 3478271 heartbeat IPC: 1.72199 cumulative IPC: 1.725 (Simulation time: 0 hr 3 min 50 sec) 
Heartbeat CPU 0 instructions: 7000001 cycles: 4058948 heartbeat IPC: 1.72213 cumulative IPC: 1.72459 (Simulation time: 0 hr 4 min 26 sec) 
Heartbeat CPU 0 instructions: 8000000 cycles: 4639139 heartbeat IPC: 1.72357 cumulative IPC: 1.72446 (Simulation time: 0 hr 5 min 4 sec) 
Heartbeat CPU 0 instructions: 9000002 cycles: 5219300 heartbeat IPC: 1.72366 cumulative IPC: 1.72437 (Simulation time: 0 hr 5 min 40 sec) 
Heartbeat CPU 0 instructions: 10000001 cycles: 5799493 heartbeat IPC: 1.72356 cumulative IPC: 1.72429 (Simulation time: 0 hr 6 min 16 sec) 

Warmup complete CPU 0 instructions: 10000001 cycles: 5799493 (Simulation time: 0 hr 6 min 16 sec) 

Heartbeat CPU 0 instructions: 11000002 cycles: 6842071 heartbeat IPC: 0.959162 cumulative IPC: 0.959162 (Simulation time: 0 hr 6 min 58 sec) 
Heartbeat CPU 0 instructions: 12000000 cycles: 7898167 heartbeat IPC: 0.946882 cumulative IPC: 0.952982 (Simulation time: 0 hr 7 min 40 sec) 
Heartbeat CPU 0 instructions: 13000001 cycles: 8994907 heartbeat IPC: 0.911794 cumulative IPC: 0.938845 (Simulation time: 0 hr 8 min 19 sec) 
Heartbeat CPU 0 instructions: 14000001 cycles: 10064047 heartbeat IPC: 0.935331 cumulative IPC: 0.937964 (Simulation time: 0 hr 9 min 5 sec) 
Heartbeat CPU 0 instructions: 15000000 cycles: 11134611 heartbeat IPC: 0.934086 cumulative IPC: 0.937186 (Simulation time: 0 hr 9 min 45 sec) 
Heartbeat CPU 0 instructions: 16000000 cycles: 12199680 heartbeat IPC: 0.938906 cumulative IPC: 0.937472 (Simulation time: 0 hr 10 min 25 sec) 
Heartbeat CPU 0 instructions: 17000000 cycles: 13282578 heartbeat IPC: 0.923448 cumulative IPC: 0.935443 (Simulation time: 0 hr 11 min 7 sec) 
Heartbeat CPU 0 instructions: 18000003 cycles: 14330751 heartbeat IPC: 0.954044 cumulative IPC: 0.937728 (Simulation time: 0 hr 11 min 47 sec) 
Heartbeat CPU 0 instructions: 19000001 cycles: 15402255 heartbeat IPC: 0.933266 cumulative IPC: 0.93723 (Simulation time: 0 hr 12 min 26 sec) 
Heartbeat CPU 0 instructions: 20000000 cycles: 16645687 heartbeat IPC: 0.804225 cumulative IPC: 0.921982 (Simulation time: 0 hr 13 min 2 sec) 
Heartbeat CPU 0 instructions: 21000001 cycles: 17922099 heartbeat IPC: 0.783447 cumulative IPC: 0.907396 (Simulation time: 0 hr 13 min 47 sec) 
Heartbeat CPU 0 instructions: 22000001 cycles: 21329691 heartbeat IPC: 0.293462 cumulative IPC: 0.772688 (Simulation time: 0 hr 14 min 27 sec) 
Heartbeat CPU 0 instructions: 23000001 cycles: 22594302 heartbeat IPC: 0.790757 cumulative IPC: 0.774049 (Simulation time: 0 hr 15 min 5 sec) 
Heartbeat CPU 0 instructions: 24000000 cycles: 26204932 heartbeat IPC: 0.27696 cumulative IPC: 0.686092 (Simulation time: 0 hr 15 min 50 sec) 
Heartbeat CPU 0 instructions: 25000003 cycles: 27450458 heartbeat IPC: 0.802876 cumulative IPC: 0.69281 (Simulation time: 0 hr 16 min 35 sec) 
Heartbeat CPU 0 instructions: 26000000 cycles: 31077929 heartbeat IPC: 0.275673 cumulative IPC: 0.63295 (Simulation time: 0 hr 17 min 17 sec) 
Heartbeat CPU 0 instructions: 27000000 cycles: 32292841 heartbeat IPC: 0.823105 cumulative IPC: 0.64167 (Simulation time: 0 hr 17 min 59 sec) 
Heartbeat CPU 0 instructions: 28000000 cycles: 35756297 heartbeat IPC: 0.288729 cumulative IPC: 0.600865 (Simulation time: 0 hr 18 min 42 sec) 
Heartbeat CPU 0 instructions: 29000000 cycles: 36975283 heartbeat IPC: 0.820354 cumulative IPC: 0.609447 (Simulation time: 0 hr 19 min 24 sec) 
Heartbeat CPU 0 instructions: 30000003 cycles: 38292200 heartbeat IPC: 0.759352 cumulative IPC: 0.615523 (Simulation time: 0 hr 19 min 59 sec) 
Heartbeat CPU 0 instructions: 31000002 cycles: 39459111 heartbeat IPC: 0.856963 cumulative IPC: 0.623893 (Simulation time: 0 hr 20 min 41 sec) 
Heartbeat CPU 0 instructions: 32000000 cycles: 40752626 heartbeat IPC: 0.773086 cumulative IPC: 0.629414 (Simulation time: 0 hr 21 min 18 sec) 
Heartbeat CPU 0 instructions: 33000003 cycles: 41917218 heartbeat IPC: 0.858672 cumulative IPC: 0.636806 (Simulation time: 0 hr 21 min 58 sec) 
Heartbeat CPU 0 instructions: 34000002 cycles: 43214215 heartbeat IPC: 0.771011 cumulative IPC: 0.641459 (Simulation time: 0 hr 22 min 32 sec) 
Heartbeat CPU 0 instructions: 35000003 cycles: 44401207 heartbeat IPC: 0.842467 cumulative IPC: 0.64764 (Simulation time: 0 hr 23 min 8 sec) 
Heartbeat CPU 0 instructions: 36000000 cycles: 45754471 heartbeat IPC: 0.738952 cumulative IPC: 0.650732 (Simulation time: 0 hr 23 min 43 sec) 
Heartbeat CPU 0 instructions: 37000000 cycles: 47083967 heartbeat IPC: 0.752165 cumulative IPC: 0.653999 (Simulation time: 0 hr 24 min 32 sec) 
Heartbeat CPU 0 instructions: 38000001 cycles: 48413505 heartbeat IPC: 0.752142 cumulative IPC: 0.657061 (Simulation time: 0 hr 25 min 14 sec) 
Heartbeat CPU 0 instructions: 39000000 cycles: 49742894 heartbeat IPC: 0.752225 cumulative IPC: 0.65994 (Simulation time: 0 hr 26 min 3 sec) 
Heartbeat CPU 0 instructions: 40000000 cycles: 51072434 heartbeat IPC: 0.75214 cumulative IPC: 0.662647 (Simulation time: 0 hr 26 min 42 sec) 
Heartbeat CPU 0 instructions: 41000000 cycles: 52336780 heartbeat IPC: 0.790923 cumulative IPC: 0.666133 (Simulation time: 0 hr 27 min 18 sec) 
Heartbeat CPU 0 instructions: 42000000 cycles: 53666261 heartbeat IPC: 0.752173 cumulative IPC: 0.668522 (Simulation time: 0 hr 28 min 3 sec) 
Heartbeat CPU 0 instructions: 43000002 cycles: 54995930 heartbeat IPC: 0.752068 cumulative IPC: 0.67078 (Simulation time: 0 hr 28 min 42 sec) 
Heartbeat CPU 0 instructions: 44000000 cycles: 56325431 heartbeat IPC: 0.75216 cumulative IPC: 0.672922 (Simulation time: 0 hr 29 min 21 sec) 
Heartbeat CPU 0 instructions: 45000001 cycles: 57654756 heartbeat IPC: 0.752262 cumulative IPC: 0.674956 (Simulation time: 0 hr 30 min 5 sec) 
Heartbeat CPU 0 instructions: 46000003 cycles: 59043790 heartbeat IPC: 0.719926 cumulative IPC: 0.676129 (Simulation time: 0 hr 30 min 45 sec) 
Heartbeat CPU 0 instructions: 47000001 cycles: 60165655 heartbeat IPC: 0.891371 cumulative IPC: 0.68057 (Simulation time: 0 hr 31 min 18 sec) 
Heartbeat CPU 0 instructions: 48000000 cycles: 61538557 heartbeat IPC: 0.728383 cumulative IPC: 0.681748 (Simulation time: 0 hr 31 min 55 sec) 
Heartbeat CPU 0 instructions: 49000003 cycles: 71152306 heartbeat IPC: 0.104018 cumulative IPC: 0.596761 (Simulation time: 0 hr 33 min 7 sec) 
Heartbeat CPU 0 instructions: 50000001 cycles: 73009727 heartbeat IPC: 0.53838 cumulative IPC: 0.595147 (Simulation time: 0 hr 33 min 53 sec) 
Heartbeat CPU 0 instructions: 51000000 cycles: 74601328 heartbeat IPC: 0.628298 cumulative IPC: 0.595914 (Simulation time: 0 hr 34 min 37 sec) 
Heartbeat CPU 0 instructions: 52000000 cycles: 76240510 heartbeat IPC: 0.61006 cumulative IPC: 0.596244 (Simulation time: 0 hr 35 min 16 sec) 
Heartbeat CPU 0 instructions: 53000000 cycles: 77867888 heartbeat IPC: 0.614485 cumulative IPC: 0.596655 (Simulation time: 0 hr 35 min 57 sec) 
Heartbeat CPU 0 instructions: 54000000 cycles: 79475978 heartbeat IPC: 0.621856 cumulative IPC: 0.597205 (Simulation time: 0 hr 36 min 37 sec) 
Heartbeat CPU 0 instructions: 55000000 cycles: 81068738 heartbeat IPC: 0.627841 cumulative IPC: 0.597854 (Simulation time: 0 hr 37 min 24 sec) 
Heartbeat CPU 0 instructions: 56000000 cycles: 82686727 heartbeat IPC: 0.618051 cumulative IPC: 0.598279 (Simulation time: 0 hr 38 min 6 sec) 
Heartbeat CPU 0 instructions: 57000002 cycles: 84331752 heartbeat IPC: 0.607895 cumulative IPC: 0.59848 (Simulation time: 0 hr 38 min 47 sec) 
Heartbeat CPU 0 instructions: 58000002 cycles: 85946135 heartbeat IPC: 0.619432 cumulative IPC: 0.598902 (Simulation time: 0 hr 39 min 27 sec) 
Heartbeat CPU 0 instructions: 59000003 cycles: 87567578 heartbeat IPC: 0.616735 cumulative IPC: 0.599256 (Simulation time: 0 hr 40 min 14 sec) 
Heartbeat CPU 0 instructions: 60000000 cycles: 89185523 heartbeat IPC: 0.618066 cumulative IPC: 0.599621 (Simulation time: 0 hr 40 min 59 sec) 
Heartbeat CPU 0 instructions: 61000000 cycles: 90782063 heartbeat IPC: 0.626355 cumulative IPC: 0.600123 (Simulation time: 0 hr 41 min 44 sec) 
Heartbeat CPU 0 instructions: 62000003 cycles: 92380964 heartbeat IPC: 0.625431 cumulative IPC: 0.60059 (Simulation time: 0 hr 42 min 23 sec) 
Heartbeat CPU 0 instructions: 63000002 cycles: 93985755 heartbeat IPC: 0.623133 cumulative IPC: 0.601001 (Simulation time: 0 hr 43 min 2 sec) 
Heartbeat CPU 0 instructions: 64000000 cycles: 95610841 heartbeat IPC: 0.615351 cumulative IPC: 0.60126 (Simulation time: 0 hr 43 min 45 sec) 
Heartbeat CPU 0 instructions: 65000003 cycles: 97247698 heartbeat IPC: 0.610929 cumulative IPC: 0.601433 (Simulation time: 0 hr 44 min 28 sec) 
Heartbeat CPU 0 instructions: 66000001 cycles: 98893757 heartbeat IPC: 0.60751 cumulative IPC: 0.601541 (Simulation time: 0 hr 45 min 8 sec) 
Heartbeat CPU 0 instructions: 67000000 cycles: 100492137 heartbeat IPC: 0.625633 cumulative IPC: 0.601947 (Simulation time: 0 hr 45 min 56 sec) 
Heartbeat CPU 0 instructions: 68000000 cycles: 102113831 heartbeat IPC: 0.616639 cumulative IPC: 0.602195 (Simulation time: 0 hr 46 min 40 sec) 
Heartbeat CPU 0 instructions: 69000000 cycles: 103736203 heartbeat IPC: 0.616381 cumulative IPC: 0.60243 (Simulation time: 0 hr 47 min 24 sec) 
Heartbeat CPU 0 instructions: 70000003 cycles: 105323662 heartbeat IPC: 0.629939 cumulative IPC: 0.602869 (Simulation time: 0 hr 48 min 6 sec) 
Heartbeat CPU 0 instructions: 71000003 cycles: 106944887 heartbeat IPC: 0.616818 cumulative IPC: 0.603092 (Simulation time: 0 hr 48 min 47 sec) 
Heartbeat CPU 0 instructions: 72000000 cycles: 108540446 heartbeat IPC: 0.626738 cumulative IPC: 0.603459 (Simulation time: 0 hr 49 min 27 sec) 
Heartbeat CPU 0 instructions: 73000001 cycles: 110163851 heartbeat IPC: 0.61599 cumulative IPC: 0.603654 (Simulation time: 0 hr 50 min 8 sec) 
Heartbeat CPU 0 instructions: 74000000 cycles: 111792013 heartbeat IPC: 0.614189 cumulative IPC: 0.603816 (Simulation time: 0 hr 50 min 48 sec) 
Heartbeat CPU 0 instructions: 75000000 cycles: 113428422 heartbeat IPC: 0.611094 cumulative IPC: 0.603927 (Simulation time: 0 hr 51 min 24 sec) 
Heartbeat CPU 0 instructions: 76000000 cycles: 115027066 heartbeat IPC: 0.62553 cumulative IPC: 0.604243 (Simulation time: 0 hr 52 min 1 sec) 
Heartbeat CPU 0 instructions: 77000003 cycles: 116662910 heartbeat IPC: 0.611307 cumulative IPC: 0.604347 (Simulation time: 0 hr 52 min 39 sec) 
Heartbeat CPU 0 instructions: 78000001 cycles: 118267887 heartbeat IPC: 0.623061 cumulative IPC: 0.604614 (Simulation time: 0 hr 53 min 25 sec) 
Heartbeat CPU 0 instructions: 79000000 cycles: 119858431 heartbeat IPC: 0.628715 cumulative IPC: 0.60495 (Simulation time: 0 hr 54 min 2 sec) 
Heartbeat CPU 0 instructions: 80000000 cycles: 121459757 heartbeat IPC: 0.624482 cumulative IPC: 0.605221 (Simulation time: 0 hr 54 min 36 sec) 
Heartbeat CPU 0 instructions: 81000001 cycles: 123072249 heartbeat IPC: 0.620159 cumulative IPC: 0.605426 (Simulation time: 0 hr 55 min 11 sec) 
Heartbeat CPU 0 instructions: 82000000 cycles: 124680251 heartbeat IPC: 0.621889 cumulative IPC: 0.605649 (Simulation time: 0 hr 55 min 46 sec) 
Heartbeat CPU 0 instructions: 83000001 cycles: 126284950 heartbeat IPC: 0.62317 cumulative IPC: 0.605882 (Simulation time: 0 hr 56 min 18 sec) 
Heartbeat CPU 0 instructions: 84000000 cycles: 127882471 heartbeat IPC: 0.625969 cumulative IPC: 0.606145 (Simulation time: 0 hr 56 min 52 sec) 
Heartbeat CPU 0 instructions: 85000001 cycles: 129503795 heartbeat IPC: 0.61678 cumulative IPC: 0.606284 (Simulation time: 0 hr 57 min 21 sec) 
Heartbeat CPU 0 instructions: 86000001 cycles: 131118902 heartbeat IPC: 0.619154 cumulative IPC: 0.60645 (Simulation time: 0 hr 57 min 51 sec) 
Heartbeat CPU 0 instructions: 87000000 cycles: 132730392 heartbeat IPC: 0.620543 cumulative IPC: 0.606629 (Simulation time: 0 hr 58 min 20 sec) 
Heartbeat CPU 0 instructions: 88000000 cycles: 134364671 heartbeat IPC: 0.611891 cumulative IPC: 0.606696 (Simulation time: 0 hr 58 min 50 sec) 
Heartbeat CPU 0 instructions: 89000003 cycles: 136015865 heartbeat IPC: 0.605624 cumulative IPC: 0.606683 (Simulation time: 0 hr 59 min 18 sec) 
Heartbeat CPU 0 instructions: 90000000 cycles: 137666880 heartbeat IPC: 0.605686 cumulative IPC: 0.60667 (Simulation time: 0 hr 59 min 46 sec) 
Heartbeat CPU 0 instructions: 91000002 cycles: 139305030 heartbeat IPC: 0.610446 cumulative IPC: 0.606716 (Simulation time: 1 hr 0 min 16 sec) 
Heartbeat CPU 0 instructions: 92000000 cycles: 140919932 heartbeat IPC: 0.619231 cumulative IPC: 0.606866 (Simulation time: 1 hr 0 min 40 sec) 
Heartbeat CPU 0 instructions: 93000001 cycles: 142546157 heartbeat IPC: 0.614922 cumulative IPC: 0.606962 (Simulation time: 1 hr 1 min 6 sec) 
Heartbeat CPU 0 instructions: 94000000 cycles: 144144777 heartbeat IPC: 0.625539 cumulative IPC: 0.607176 (Simulation time: 1 hr 1 min 31 sec) 
Heartbeat CPU 0 instructions: 95000002 cycles: 145748216 heartbeat IPC: 0.623661 cumulative IPC: 0.607365 (Simulation time: 1 hr 1 min 55 sec) 
Heartbeat CPU 0 instructions: 96000000 cycles: 147358711 heartbeat IPC: 0.620926 cumulative IPC: 0.60752 (Simulation time: 1 hr 2 min 20 sec) 
Heartbeat CPU 0 instructions: 97000002 cycles: 148979413 heartbeat IPC: 0.617018 cumulative IPC: 0.607627 (Simulation time: 1 hr 2 min 44 sec) 
Heartbeat CPU 0 instructions: 98000000 cycles: 150615291 heartbeat IPC: 0.611291 cumulative IPC: 0.607669 (Simulation time: 1 hr 3 min 9 sec) 
Heartbeat CPU 0 instructions: 99000000 cycles: 152198434 heartbeat IPC: 0.631655 cumulative IPC: 0.607928 (Simulation time: 1 hr 3 min 32 sec) 
Heartbeat CPU 0 instructions: 100000000 cycles: 153828471 heartbeat IPC: 0.613483 cumulative IPC: 0.607989 (Simulation time: 1 hr 3 min 52 sec) 
Heartbeat CPU 0 instructions: 101000001 cycles: 155461346 heartbeat IPC: 0.612417 cumulative IPC: 0.608037 (Simulation time: 1 hr 4 min 10 sec) 
Heartbeat CPU 0 instructions: 102000000 cycles: 157089474 heartbeat IPC: 0.614202 cumulative IPC: 0.608104 (Simulation time: 1 hr 4 min 27 sec) 
Heartbeat CPU 0 instructions: 103000000 cycles: 158699394 heartbeat IPC: 0.621149 cumulative IPC: 0.608241 (Simulation time: 1 hr 4 min 43 sec) 
Heartbeat CPU 0 instructions: 104000000 cycles: 160319099 heartbeat IPC: 0.617396 cumulative IPC: 0.608337 (Simulation time: 1 hr 4 min 59 sec) 
Heartbeat CPU 0 instructions: 105000000 cycles: 161956664 heartbeat IPC: 0.610663 cumulative IPC: 0.608361 (Simulation time: 1 hr 5 min 13 sec) 
Heartbeat CPU 0 instructions: 106000001 cycles: 163578108 heartbeat IPC: 0.616735 cumulative IPC: 0.608447 (Simulation time: 1 hr 5 min 27 sec) 
Heartbeat CPU 0 instructions: 107000001 cycles: 165203862 heartbeat IPC: 0.615099 cumulative IPC: 0.608515 (Simulation time: 1 hr 5 min 42 sec) 
Heartbeat CPU 0 instructions: 108000000 cycles: 166836660 heartbeat IPC: 0.612445 cumulative IPC: 0.608555 (Simulation time: 1 hr 5 min 56 sec) 
Heartbeat CPU 0 instructions: 109000003 cycles: 168425603 heartbeat IPC: 0.629351 cumulative IPC: 0.608758 (Simulation time: 1 hr 6 min 11 sec) 
Heartbeat CPU 0 instructions: 110000001 cycles: 170037094 heartbeat IPC: 0.620542 cumulative IPC: 0.608874 (Simulation time: 1 hr 6 min 24 sec) 
Finished CPU 0 instructions: 100000000 cycles: 164237601 cummulative IPC: 0.608874 (Simulation time: 1 hr 6 min 24 sec) 

ChampSim completed all CPUs

Region of Interest Statistics

CPU 0 cummulative IPC: 0.608874 instructions: 100000000 cycles: 164237601
LLC TOTAL     ACCESS:    4812834  HIT:     567721  MISS:    4245113
LLC LOAD      ACCESS:     461884  HIT:      41203  MISS:     420681
LLC RFO       ACCESS:     126472  HIT:     117199  MISS:       9273
LLC PREFETCH  ACCESS:    2860187  HIT:     135342  MISS:    2724845
LLC WRITEBACK ACCESS:    1364291  HIT:     273977  MISS:    1090314
Insertion Distribution: 
	LOAD 30507 0 76931 322777 
	RFO 14 0 8625 636 
	PREF 0 8009 200208 2754368 
	WRITEBACK 0 0 0 1205257 
Total Prefetch Downgrades: 7437
