
*** ChampSim Multicore Out-of-Order Simulator ***

Warmup Instructions: 10000000
Simulation Instructions: 100000000
Configuration: 2
Number of CPUs: 1
LLC sets: 2048
LLC ways: 16
Off-chip DRAM Channels: 1 Width: 64-bit Data Rate: 1600 MT/s

CPU 0 runs /datasets/cs240c-wi22-a00-public/data/Assignment2-gz/perlbench_53B.trace.gz
CPU 0 L1D next line prefetcher
CPU 0 L2C IP-based stride prefetcher
Initialize SRRIP state
Heartbeat CPU 0 instructions: 1000000 cycles: 615802 heartbeat IPC: 1.6239 cumulative IPC: 1.6239 (Simulation time: 0 hr 0 min 38 sec) 
Heartbeat CPU 0 instructions: 2000001 cycles: 1252973 heartbeat IPC: 1.56944 cumulative IPC: 1.5962 (Simulation time: 0 hr 1 min 15 sec) 
Heartbeat CPU 0 instructions: 3000002 cycles: 1908459 heartbeat IPC: 1.52559 cumulative IPC: 1.57195 (Simulation time: 0 hr 1 min 53 sec) 
Heartbeat CPU 0 instructions: 4000000 cycles: 2523972 heartbeat IPC: 1.62466 cumulative IPC: 1.5848 (Simulation time: 0 hr 2 min 31 sec) 
Heartbeat CPU 0 instructions: 5000001 cycles: 3151982 heartbeat IPC: 1.59233 cumulative IPC: 1.5863 (Simulation time: 0 hr 3 min 8 sec) 
Heartbeat CPU 0 instructions: 6000001 cycles: 3767489 heartbeat IPC: 1.62468 cumulative IPC: 1.59257 (Simulation time: 0 hr 3 min 46 sec) 
Heartbeat CPU 0 instructions: 7000002 cycles: 4390291 heartbeat IPC: 1.60565 cumulative IPC: 1.59443 (Simulation time: 0 hr 4 min 24 sec) 
Heartbeat CPU 0 instructions: 8000000 cycles: 5000685 heartbeat IPC: 1.63828 cumulative IPC: 1.59978 (Simulation time: 0 hr 4 min 59 sec) 
Heartbeat CPU 0 instructions: 9000000 cycles: 5652428 heartbeat IPC: 1.53435 cumulative IPC: 1.59224 (Simulation time: 0 hr 5 min 35 sec) 
Heartbeat CPU 0 instructions: 10000001 cycles: 6287671 heartbeat IPC: 1.5742 cumulative IPC: 1.59041 (Simulation time: 0 hr 6 min 13 sec) 

Warmup complete CPU 0 instructions: 10000001 cycles: 6287671 (Simulation time: 0 hr 6 min 13 sec) 

Heartbeat CPU 0 instructions: 11000000 cycles: 9157380 heartbeat IPC: 0.348467 cumulative IPC: 0.348467 (Simulation time: 0 hr 6 min 56 sec) 
Heartbeat CPU 0 instructions: 12000000 cycles: 12018416 heartbeat IPC: 0.349524 cumulative IPC: 0.348995 (Simulation time: 0 hr 7 min 41 sec) 
Heartbeat CPU 0 instructions: 13000000 cycles: 14370105 heartbeat IPC: 0.425226 cumulative IPC: 0.371175 (Simulation time: 0 hr 8 min 20 sec) 
Heartbeat CPU 0 instructions: 14000000 cycles: 16881597 heartbeat IPC: 0.39817 cumulative IPC: 0.377575 (Simulation time: 0 hr 8 min 56 sec) 
Heartbeat CPU 0 instructions: 15000001 cycles: 19639194 heartbeat IPC: 0.362635 cumulative IPC: 0.374489 (Simulation time: 0 hr 9 min 33 sec) 
Heartbeat CPU 0 instructions: 16000000 cycles: 22303690 heartbeat IPC: 0.375305 cumulative IPC: 0.374625 (Simulation time: 0 hr 10 min 13 sec) 
Heartbeat CPU 0 instructions: 17000001 cycles: 24979312 heartbeat IPC: 0.373745 cumulative IPC: 0.374499 (Simulation time: 0 hr 10 min 52 sec) 
Heartbeat CPU 0 instructions: 18000002 cycles: 27835990 heartbeat IPC: 0.350057 cumulative IPC: 0.371259 (Simulation time: 0 hr 11 min 34 sec) 
Heartbeat CPU 0 instructions: 19000000 cycles: 30660220 heartbeat IPC: 0.354078 cumulative IPC: 0.369268 (Simulation time: 0 hr 12 min 10 sec) 
Heartbeat CPU 0 instructions: 20000000 cycles: 33516134 heartbeat IPC: 0.350151 cumulative IPC: 0.367263 (Simulation time: 0 hr 12 min 53 sec) 
Heartbeat CPU 0 instructions: 21000000 cycles: 35874915 heartbeat IPC: 0.423948 cumulative IPC: 0.371782 (Simulation time: 0 hr 13 min 35 sec) 
Heartbeat CPU 0 instructions: 22000000 cycles: 37951595 heartbeat IPC: 0.481538 cumulative IPC: 0.37898 (Simulation time: 0 hr 14 min 17 sec) 
Heartbeat CPU 0 instructions: 23000001 cycles: 39881331 heartbeat IPC: 0.518206 cumulative IPC: 0.386978 (Simulation time: 0 hr 14 min 56 sec) 
Heartbeat CPU 0 instructions: 24000000 cycles: 42279278 heartbeat IPC: 0.417023 cumulative IPC: 0.38898 (Simulation time: 0 hr 15 min 42 sec) 
Heartbeat CPU 0 instructions: 25000000 cycles: 44290241 heartbeat IPC: 0.497274 cumulative IPC: 0.39471 (Simulation time: 0 hr 16 min 21 sec) 
Heartbeat CPU 0 instructions: 26000001 cycles: 46274779 heartbeat IPC: 0.503896 cumulative IPC: 0.400129 (Simulation time: 0 hr 16 min 57 sec) 
Heartbeat CPU 0 instructions: 27000002 cycles: 48568567 heartbeat IPC: 0.435961 cumulative IPC: 0.402073 (Simulation time: 0 hr 17 min 41 sec) 
Heartbeat CPU 0 instructions: 28000000 cycles: 51140524 heartbeat IPC: 0.388808 cumulative IPC: 0.401312 (Simulation time: 0 hr 18 min 27 sec) 
Heartbeat CPU 0 instructions: 29000000 cycles: 53459699 heartbeat IPC: 0.431188 cumulative IPC: 0.402781 (Simulation time: 0 hr 19 min 20 sec) 
Heartbeat CPU 0 instructions: 30000000 cycles: 55502284 heartbeat IPC: 0.489576 cumulative IPC: 0.406383 (Simulation time: 0 hr 20 min 5 sec) 
Heartbeat CPU 0 instructions: 31000001 cycles: 57489151 heartbeat IPC: 0.503305 cumulative IPC: 0.410144 (Simulation time: 0 hr 20 min 40 sec) 
Heartbeat CPU 0 instructions: 32000000 cycles: 59486376 heartbeat IPC: 0.500694 cumulative IPC: 0.413544 (Simulation time: 0 hr 21 min 21 sec) 
Heartbeat CPU 0 instructions: 33000003 cycles: 61941027 heartbeat IPC: 0.407391 cumulative IPC: 0.413273 (Simulation time: 0 hr 22 min 1 sec) 
Heartbeat CPU 0 instructions: 34000000 cycles: 64639979 heartbeat IPC: 0.370513 cumulative IPC: 0.411295 (Simulation time: 0 hr 22 min 40 sec) 
Heartbeat CPU 0 instructions: 35000000 cycles: 67190175 heartbeat IPC: 0.392127 cumulative IPC: 0.410492 (Simulation time: 0 hr 23 min 23 sec) 
Heartbeat CPU 0 instructions: 36000000 cycles: 69980893 heartbeat IPC: 0.358331 cumulative IPC: 0.408207 (Simulation time: 0 hr 24 min 6 sec) 
Heartbeat CPU 0 instructions: 37000002 cycles: 72824651 heartbeat IPC: 0.351648 cumulative IPC: 0.405789 (Simulation time: 0 hr 24 min 49 sec) 
Heartbeat CPU 0 instructions: 38000000 cycles: 75693508 heartbeat IPC: 0.34857 cumulative IPC: 0.403424 (Simulation time: 0 hr 25 min 28 sec) 
Heartbeat CPU 0 instructions: 39000001 cycles: 78361974 heartbeat IPC: 0.374748 cumulative IPC: 0.402363 (Simulation time: 0 hr 26 min 12 sec) 
Heartbeat CPU 0 instructions: 40000000 cycles: 80962916 heartbeat IPC: 0.384476 cumulative IPC: 0.40174 (Simulation time: 0 hr 26 min 58 sec) 
Heartbeat CPU 0 instructions: 41000002 cycles: 83835746 heartbeat IPC: 0.34809 cumulative IPC: 0.399752 (Simulation time: 0 hr 27 min 38 sec) 
Heartbeat CPU 0 instructions: 42000000 cycles: 86438685 heartbeat IPC: 0.38418 cumulative IPC: 0.399246 (Simulation time: 0 hr 28 min 17 sec) 
Heartbeat CPU 0 instructions: 43000002 cycles: 89279209 heartbeat IPC: 0.352048 cumulative IPC: 0.397631 (Simulation time: 0 hr 28 min 56 sec) 
Heartbeat CPU 0 instructions: 44000000 cycles: 91943534 heartbeat IPC: 0.375329 cumulative IPC: 0.396937 (Simulation time: 0 hr 29 min 40 sec) 
Heartbeat CPU 0 instructions: 45000001 cycles: 93404654 heartbeat IPC: 0.684407 cumulative IPC: 0.401759 (Simulation time: 0 hr 30 min 15 sec) 
Heartbeat CPU 0 instructions: 46000000 cycles: 95429037 heartbeat IPC: 0.493977 cumulative IPC: 0.403853 (Simulation time: 0 hr 30 min 52 sec) 
Heartbeat CPU 0 instructions: 47000002 cycles: 97344440 heartbeat IPC: 0.522084 cumulative IPC: 0.40634 (Simulation time: 0 hr 31 min 28 sec) 
Heartbeat CPU 0 instructions: 48000000 cycles: 99264655 heartbeat IPC: 0.520774 cumulative IPC: 0.408703 (Simulation time: 0 hr 32 min 6 sec) 
Heartbeat CPU 0 instructions: 49000000 cycles: 101614958 heartbeat IPC: 0.425477 cumulative IPC: 0.409117 (Simulation time: 0 hr 32 min 55 sec) 
Heartbeat CPU 0 instructions: 50000002 cycles: 103478208 heartbeat IPC: 0.536698 cumulative IPC: 0.411563 (Simulation time: 0 hr 33 min 36 sec) 
Heartbeat CPU 0 instructions: 51000000 cycles: 105408791 heartbeat IPC: 0.517977 cumulative IPC: 0.413635 (Simulation time: 0 hr 34 min 15 sec) 
Heartbeat CPU 0 instructions: 52000000 cycles: 107323796 heartbeat IPC: 0.522192 cumulative IPC: 0.415693 (Simulation time: 0 hr 34 min 52 sec) 
Heartbeat CPU 0 instructions: 53000002 cycles: 109274614 heartbeat IPC: 0.512607 cumulative IPC: 0.417529 (Simulation time: 0 hr 35 min 27 sec) 
Heartbeat CPU 0 instructions: 54000000 cycles: 112166240 heartbeat IPC: 0.345825 cumulative IPC: 0.41557 (Simulation time: 0 hr 36 min 7 sec) 
Heartbeat CPU 0 instructions: 55000000 cycles: 114654573 heartbeat IPC: 0.401875 cumulative IPC: 0.415256 (Simulation time: 0 hr 36 min 48 sec) 
Heartbeat CPU 0 instructions: 56000000 cycles: 117456007 heartbeat IPC: 0.35696 cumulative IPC: 0.413787 (Simulation time: 0 hr 37 min 29 sec) 
Heartbeat CPU 0 instructions: 57000001 cycles: 120444276 heartbeat IPC: 0.334642 cumulative IPC: 0.411715 (Simulation time: 0 hr 38 min 11 sec) 
Heartbeat CPU 0 instructions: 58000003 cycles: 123413514 heartbeat IPC: 0.336787 cumulative IPC: 0.409816 (Simulation time: 0 hr 39 min 1 sec) 
Heartbeat CPU 0 instructions: 59000002 cycles: 126227596 heartbeat IPC: 0.355355 cumulative IPC: 0.408538 (Simulation time: 0 hr 39 min 45 sec) 
Heartbeat CPU 0 instructions: 60000000 cycles: 128990343 heartbeat IPC: 0.361958 cumulative IPC: 0.407489 (Simulation time: 0 hr 40 min 30 sec) 
Heartbeat CPU 0 instructions: 61000002 cycles: 131622607 heartbeat IPC: 0.379902 cumulative IPC: 0.40691 (Simulation time: 0 hr 41 min 10 sec) 
Heartbeat CPU 0 instructions: 62000002 cycles: 134303785 heartbeat IPC: 0.37297 cumulative IPC: 0.406199 (Simulation time: 0 hr 41 min 54 sec) 
Heartbeat CPU 0 instructions: 63000001 cycles: 136971392 heartbeat IPC: 0.374867 cumulative IPC: 0.405559 (Simulation time: 0 hr 42 min 35 sec) 
Heartbeat CPU 0 instructions: 64000000 cycles: 139628185 heartbeat IPC: 0.376393 cumulative IPC: 0.404978 (Simulation time: 0 hr 43 min 16 sec) 
Heartbeat CPU 0 instructions: 65000003 cycles: 142265819 heartbeat IPC: 0.379129 cumulative IPC: 0.404477 (Simulation time: 0 hr 43 min 57 sec) 
Heartbeat CPU 0 instructions: 66000001 cycles: 144893811 heartbeat IPC: 0.380518 cumulative IPC: 0.404023 (Simulation time: 0 hr 44 min 37 sec) 
Heartbeat CPU 0 instructions: 67000001 cycles: 147506853 heartbeat IPC: 0.382696 cumulative IPC: 0.403628 (Simulation time: 0 hr 45 min 22 sec) 
Heartbeat CPU 0 instructions: 68000000 cycles: 150174480 heartbeat IPC: 0.374865 cumulative IPC: 0.403095 (Simulation time: 0 hr 46 min 3 sec) 
Heartbeat CPU 0 instructions: 69000001 cycles: 152812731 heartbeat IPC: 0.379039 cumulative IPC: 0.402662 (Simulation time: 0 hr 46 min 44 sec) 
Heartbeat CPU 0 instructions: 70000001 cycles: 155424264 heartbeat IPC: 0.382917 cumulative IPC: 0.402316 (Simulation time: 0 hr 47 min 24 sec) 
Heartbeat CPU 0 instructions: 71000001 cycles: 158143018 heartbeat IPC: 0.367816 cumulative IPC: 0.401698 (Simulation time: 0 hr 48 min 13 sec) 
Heartbeat CPU 0 instructions: 72000000 cycles: 160749835 heartbeat IPC: 0.383609 cumulative IPC: 0.401393 (Simulation time: 0 hr 48 min 57 sec) 
Heartbeat CPU 0 instructions: 73000002 cycles: 163404032 heartbeat IPC: 0.376763 cumulative IPC: 0.400977 (Simulation time: 0 hr 49 min 39 sec) 
Heartbeat CPU 0 instructions: 74000001 cycles: 166084582 heartbeat IPC: 0.373057 cumulative IPC: 0.400508 (Simulation time: 0 hr 50 min 20 sec) 
Heartbeat CPU 0 instructions: 75000001 cycles: 168743147 heartbeat IPC: 0.376143 cumulative IPC: 0.40011 (Simulation time: 0 hr 50 min 56 sec) 
Heartbeat CPU 0 instructions: 76000000 cycles: 171384161 heartbeat IPC: 0.378642 cumulative IPC: 0.399766 (Simulation time: 0 hr 51 min 32 sec) 
Heartbeat CPU 0 instructions: 77000002 cycles: 174056680 heartbeat IPC: 0.37418 cumulative IPC: 0.399359 (Simulation time: 0 hr 52 min 9 sec) 
Heartbeat CPU 0 instructions: 78000000 cycles: 176710156 heartbeat IPC: 0.376863 cumulative IPC: 0.399008 (Simulation time: 0 hr 52 min 51 sec) 
Heartbeat CPU 0 instructions: 79000002 cycles: 179371266 heartbeat IPC: 0.375784 cumulative IPC: 0.398651 (Simulation time: 0 hr 53 min 26 sec) 
Heartbeat CPU 0 instructions: 80000000 cycles: 182005993 heartbeat IPC: 0.379545 cumulative IPC: 0.398365 (Simulation time: 0 hr 54 min 2 sec) 
Heartbeat CPU 0 instructions: 81000000 cycles: 184620424 heartbeat IPC: 0.382492 cumulative IPC: 0.398132 (Simulation time: 0 hr 54 min 36 sec) 
Heartbeat CPU 0 instructions: 82000002 cycles: 187297328 heartbeat IPC: 0.373567 cumulative IPC: 0.397769 (Simulation time: 0 hr 55 min 9 sec) 
Heartbeat CPU 0 instructions: 83000000 cycles: 189943131 heartbeat IPC: 0.377956 cumulative IPC: 0.397483 (Simulation time: 0 hr 55 min 43 sec) 
Heartbeat CPU 0 instructions: 84000000 cycles: 192599459 heartbeat IPC: 0.37646 cumulative IPC: 0.397184 (Simulation time: 0 hr 56 min 18 sec) 
Heartbeat CPU 0 instructions: 85000001 cycles: 195275946 heartbeat IPC: 0.373624 cumulative IPC: 0.39685 (Simulation time: 0 hr 56 min 50 sec) 
Heartbeat CPU 0 instructions: 86000000 cycles: 197772369 heartbeat IPC: 0.400573 cumulative IPC: 0.396899 (Simulation time: 0 hr 57 min 24 sec) 
Heartbeat CPU 0 instructions: 87000000 cycles: 199903619 heartbeat IPC: 0.469208 cumulative IPC: 0.397694 (Simulation time: 0 hr 57 min 51 sec) 
Heartbeat CPU 0 instructions: 88000000 cycles: 201900912 heartbeat IPC: 0.500678 cumulative IPC: 0.398746 (Simulation time: 0 hr 58 min 18 sec) 
Heartbeat CPU 0 instructions: 89000001 cycles: 203976672 heartbeat IPC: 0.481752 cumulative IPC: 0.399618 (Simulation time: 0 hr 58 min 43 sec) 
Heartbeat CPU 0 instructions: 90000000 cycles: 206643299 heartbeat IPC: 0.375005 cumulative IPC: 0.39929 (Simulation time: 0 hr 59 min 16 sec) 
Heartbeat CPU 0 instructions: 91000001 cycles: 209407645 heartbeat IPC: 0.36175 cumulative IPC: 0.398779 (Simulation time: 0 hr 59 min 48 sec) 
Heartbeat CPU 0 instructions: 92000000 cycles: 212089268 heartbeat IPC: 0.372908 cumulative IPC: 0.398442 (Simulation time: 1 hr 0 min 17 sec) 
Heartbeat CPU 0 instructions: 93000000 cycles: 214740114 heartbeat IPC: 0.377238 cumulative IPC: 0.398172 (Simulation time: 1 hr 0 min 44 sec) 
Heartbeat CPU 0 instructions: 94000002 cycles: 217388392 heartbeat IPC: 0.377605 cumulative IPC: 0.397914 (Simulation time: 1 hr 1 min 9 sec) 
Heartbeat CPU 0 instructions: 95000000 cycles: 220008068 heartbeat IPC: 0.381726 cumulative IPC: 0.397716 (Simulation time: 1 hr 1 min 34 sec) 
Heartbeat CPU 0 instructions: 96000000 cycles: 222672278 heartbeat IPC: 0.375346 cumulative IPC: 0.39744 (Simulation time: 1 hr 2 min 0 sec) 
Heartbeat CPU 0 instructions: 97000000 cycles: 225312553 heartbeat IPC: 0.378748 cumulative IPC: 0.397215 (Simulation time: 1 hr 2 min 24 sec) 
Heartbeat CPU 0 instructions: 98000000 cycles: 227934989 heartbeat IPC: 0.381325 cumulative IPC: 0.397027 (Simulation time: 1 hr 2 min 48 sec) 
Heartbeat CPU 0 instructions: 99000002 cycles: 230544014 heartbeat IPC: 0.383286 cumulative IPC: 0.396867 (Simulation time: 1 hr 3 min 13 sec) 
Heartbeat CPU 0 instructions: 100000000 cycles: 233170274 heartbeat IPC: 0.380769 cumulative IPC: 0.396681 (Simulation time: 1 hr 3 min 35 sec) 
Heartbeat CPU 0 instructions: 101000002 cycles: 235824609 heartbeat IPC: 0.376743 cumulative IPC: 0.39645 (Simulation time: 1 hr 3 min 56 sec) 
Heartbeat CPU 0 instructions: 102000000 cycles: 238455042 heartbeat IPC: 0.380165 cumulative IPC: 0.396266 (Simulation time: 1 hr 4 min 14 sec) 
Heartbeat CPU 0 instructions: 103000000 cycles: 241080614 heartbeat IPC: 0.380869 cumulative IPC: 0.396094 (Simulation time: 1 hr 4 min 30 sec) 
Heartbeat CPU 0 instructions: 104000000 cycles: 243742772 heartbeat IPC: 0.375635 cumulative IPC: 0.395864 (Simulation time: 1 hr 4 min 48 sec) 
Heartbeat CPU 0 instructions: 105000003 cycles: 245922071 heartbeat IPC: 0.458865 cumulative IPC: 0.396437 (Simulation time: 1 hr 5 min 1 sec) 
Heartbeat CPU 0 instructions: 106000000 cycles: 247899145 heartbeat IPC: 0.505796 cumulative IPC: 0.397332 (Simulation time: 1 hr 5 min 14 sec) 
Heartbeat CPU 0 instructions: 107000003 cycles: 249874090 heartbeat IPC: 0.506345 cumulative IPC: 0.398216 (Simulation time: 1 hr 5 min 27 sec) 
Heartbeat CPU 0 instructions: 108000000 cycles: 252626736 heartbeat IPC: 0.363286 cumulative IPC: 0.397826 (Simulation time: 1 hr 5 min 42 sec) 
Heartbeat CPU 0 instructions: 109000001 cycles: 255324721 heartbeat IPC: 0.370647 cumulative IPC: 0.397531 (Simulation time: 1 hr 5 min 55 sec) 
Heartbeat CPU 0 instructions: 110000000 cycles: 257844385 heartbeat IPC: 0.396878 cumulative IPC: 0.397525 (Simulation time: 1 hr 6 min 10 sec) 
Finished CPU 0 instructions: 100000000 cycles: 251556715 cummulative IPC: 0.397525 (Simulation time: 1 hr 6 min 10 sec) 

ChampSim completed all CPUs

Region of Interest Statistics

CPU 0 cummulative IPC: 0.397525 instructions: 100000000 cycles: 251556715
LLC TOTAL     ACCESS:     656697  HIT:     612547  MISS:      44150
LLC LOAD      ACCESS:     310899  HIT:     302700  MISS:       8199
LLC RFO       ACCESS:      30806  HIT:      26530  MISS:       4276
LLC PREFETCH  ACCESS:     212711  HIT:     181636  MISS:      31075
LLC WRITEBACK ACCESS:     102281  HIT:     101681  MISS:        600
Insertion Distribution: 
	LOAD 3773 0 17745 295 
	RFO 1030 0 4978 58 
	PREF 0 819 27531 15034 
	WRITEBACK 0 0 0 857 
Total Prefetch Downgrades: 3460
