
*** ChampSim Multicore Out-of-Order Simulator ***

Warmup Instructions: 10000000
Simulation Instructions: 100000000
Configuration: 2
Number of CPUs: 1
LLC sets: 2048
LLC ways: 16
Off-chip DRAM Channels: 1 Width: 64-bit Data Rate: 1600 MT/s

CPU 0 runs /datasets/cs240c-wi22-a00-public/data/Assignment2-gz/sphinx3_1339B.trace.gz
CPU 0 L1D next line prefetcher
CPU 0 L2C IP-based stride prefetcher
Initialize SRRIP state
Heartbeat CPU 0 instructions: 1000000 cycles: 339022 heartbeat IPC: 2.94966 cumulative IPC: 2.94966 (Simulation time: 0 hr 0 min 26 sec) 
Heartbeat CPU 0 instructions: 2000001 cycles: 693417 heartbeat IPC: 2.82171 cumulative IPC: 2.88427 (Simulation time: 0 hr 0 min 54 sec) 
Heartbeat CPU 0 instructions: 3000000 cycles: 1084463 heartbeat IPC: 2.55724 cumulative IPC: 2.76635 (Simulation time: 0 hr 1 min 28 sec) 
Heartbeat CPU 0 instructions: 4000000 cycles: 1529987 heartbeat IPC: 2.24455 cumulative IPC: 2.6144 (Simulation time: 0 hr 1 min 53 sec) 
Heartbeat CPU 0 instructions: 5000003 cycles: 1869000 heartbeat IPC: 2.94975 cumulative IPC: 2.67523 (Simulation time: 0 hr 2 min 20 sec) 
Heartbeat CPU 0 instructions: 6000002 cycles: 2253242 heartbeat IPC: 2.60252 cumulative IPC: 2.66283 (Simulation time: 0 hr 2 min 48 sec) 
Heartbeat CPU 0 instructions: 7000001 cycles: 2716996 heartbeat IPC: 2.15631 cumulative IPC: 2.57638 (Simulation time: 0 hr 3 min 20 sec) 
Heartbeat CPU 0 instructions: 8000000 cycles: 3055867 heartbeat IPC: 2.95097 cumulative IPC: 2.61791 (Simulation time: 0 hr 3 min 46 sec) 
Heartbeat CPU 0 instructions: 9000003 cycles: 3412460 heartbeat IPC: 2.80433 cumulative IPC: 2.63739 (Simulation time: 0 hr 4 min 10 sec) 
Heartbeat CPU 0 instructions: 10000001 cycles: 3799185 heartbeat IPC: 2.58581 cumulative IPC: 2.63214 (Simulation time: 0 hr 4 min 34 sec) 

Warmup complete CPU 0 instructions: 10000001 cycles: 3799185 (Simulation time: 0 hr 4 min 34 sec) 

Heartbeat CPU 0 instructions: 11000001 cycles: 4699574 heartbeat IPC: 1.11063 cumulative IPC: 1.11063 (Simulation time: 0 hr 5 min 5 sec) 
Heartbeat CPU 0 instructions: 12000000 cycles: 5521256 heartbeat IPC: 1.21701 cumulative IPC: 1.16139 (Simulation time: 0 hr 5 min 36 sec) 
Heartbeat CPU 0 instructions: 13000000 cycles: 6772191 heartbeat IPC: 0.799402 cumulative IPC: 1.00908 (Simulation time: 0 hr 6 min 6 sec) 
Heartbeat CPU 0 instructions: 14000000 cycles: 7631320 heartbeat IPC: 1.16397 cumulative IPC: 1.0438 (Simulation time: 0 hr 6 min 35 sec) 
Heartbeat CPU 0 instructions: 15000001 cycles: 8496257 heartbeat IPC: 1.15615 cumulative IPC: 1.06449 (Simulation time: 0 hr 7 min 4 sec) 
Heartbeat CPU 0 instructions: 16000000 cycles: 9518925 heartbeat IPC: 0.977833 cumulative IPC: 1.049 (Simulation time: 0 hr 7 min 34 sec) 
Heartbeat CPU 0 instructions: 17000001 cycles: 10848899 heartbeat IPC: 0.751895 cumulative IPC: 0.992948 (Simulation time: 0 hr 8 min 4 sec) 
Heartbeat CPU 0 instructions: 18000003 cycles: 11906019 heartbeat IPC: 0.945968 cumulative IPC: 0.986822 (Simulation time: 0 hr 8 min 34 sec) 
Heartbeat CPU 0 instructions: 19000002 cycles: 12757850 heartbeat IPC: 1.17394 cumulative IPC: 1.00461 (Simulation time: 0 hr 9 min 3 sec) 
Heartbeat CPU 0 instructions: 20000000 cycles: 13612503 heartbeat IPC: 1.17006 cumulative IPC: 1.01902 (Simulation time: 0 hr 9 min 33 sec) 
Heartbeat CPU 0 instructions: 21000000 cycles: 14780924 heartbeat IPC: 0.855856 cumulative IPC: 1.00166 (Simulation time: 0 hr 10 min 6 sec) 
Heartbeat CPU 0 instructions: 22000000 cycles: 15755403 heartbeat IPC: 1.02619 cumulative IPC: 1.00366 (Simulation time: 0 hr 10 min 37 sec) 
Heartbeat CPU 0 instructions: 23000003 cycles: 16614459 heartbeat IPC: 1.16407 cumulative IPC: 1.01441 (Simulation time: 0 hr 11 min 7 sec) 
Heartbeat CPU 0 instructions: 24000000 cycles: 17535865 heartbeat IPC: 1.08529 cumulative IPC: 1.01917 (Simulation time: 0 hr 11 min 38 sec) 
Heartbeat CPU 0 instructions: 25000001 cycles: 18450818 heartbeat IPC: 1.09295 cumulative IPC: 1.02378 (Simulation time: 0 hr 12 min 4 sec) 
Heartbeat CPU 0 instructions: 26000003 cycles: 19277223 heartbeat IPC: 1.21006 cumulative IPC: 1.03372 (Simulation time: 0 hr 12 min 35 sec) 
Heartbeat CPU 0 instructions: 27000000 cycles: 20100892 heartbeat IPC: 1.21408 cumulative IPC: 1.04284 (Simulation time: 0 hr 13 min 3 sec) 
Heartbeat CPU 0 instructions: 28000000 cycles: 21017377 heartbeat IPC: 1.09113 cumulative IPC: 1.04541 (Simulation time: 0 hr 13 min 32 sec) 
Heartbeat CPU 0 instructions: 29000003 cycles: 21848376 heartbeat IPC: 1.20337 cumulative IPC: 1.05268 (Simulation time: 0 hr 14 min 4 sec) 
Heartbeat CPU 0 instructions: 30000003 cycles: 22656484 heartbeat IPC: 1.23746 cumulative IPC: 1.0606 (Simulation time: 0 hr 14 min 38 sec) 
Heartbeat CPU 0 instructions: 31000002 cycles: 23547626 heartbeat IPC: 1.12215 cumulative IPC: 1.06338 (Simulation time: 0 hr 15 min 9 sec) 
Heartbeat CPU 0 instructions: 32000000 cycles: 24416189 heartbeat IPC: 1.15132 cumulative IPC: 1.06708 (Simulation time: 0 hr 15 min 38 sec) 
Heartbeat CPU 0 instructions: 33000001 cycles: 25228810 heartbeat IPC: 1.23059 cumulative IPC: 1.07328 (Simulation time: 0 hr 16 min 9 sec) 
Heartbeat CPU 0 instructions: 34000001 cycles: 26595964 heartbeat IPC: 0.731447 cumulative IPC: 1.05278 (Simulation time: 0 hr 16 min 41 sec) 
Heartbeat CPU 0 instructions: 35000000 cycles: 27494351 heartbeat IPC: 1.1131 cumulative IPC: 1.05507 (Simulation time: 0 hr 17 min 10 sec) 
Heartbeat CPU 0 instructions: 36000000 cycles: 28358526 heartbeat IPC: 1.15717 cumulative IPC: 1.05866 (Simulation time: 0 hr 17 min 40 sec) 
Heartbeat CPU 0 instructions: 37000003 cycles: 29366126 heartbeat IPC: 0.99246 cumulative IPC: 1.05605 (Simulation time: 0 hr 18 min 14 sec) 
Heartbeat CPU 0 instructions: 38000000 cycles: 30527579 heartbeat IPC: 0.860988 cumulative IPC: 1.04758 (Simulation time: 0 hr 18 min 54 sec) 
Heartbeat CPU 0 instructions: 39000000 cycles: 31360175 heartbeat IPC: 1.20106 cumulative IPC: 1.05221 (Simulation time: 0 hr 19 min 24 sec) 
Heartbeat CPU 0 instructions: 40000000 cycles: 32208677 heartbeat IPC: 1.17855 cumulative IPC: 1.05599 (Simulation time: 0 hr 19 min 59 sec) 
Heartbeat CPU 0 instructions: 41000000 cycles: 33442417 heartbeat IPC: 0.810544 cumulative IPC: 1.04577 (Simulation time: 0 hr 20 min 33 sec) 
Heartbeat CPU 0 instructions: 42000002 cycles: 34288083 heartbeat IPC: 1.1825 cumulative IPC: 1.04956 (Simulation time: 0 hr 21 min 7 sec) 
Heartbeat CPU 0 instructions: 43000001 cycles: 35135850 heartbeat IPC: 1.17957 cumulative IPC: 1.05308 (Simulation time: 0 hr 21 min 41 sec) 
Heartbeat CPU 0 instructions: 44000000 cycles: 36200157 heartbeat IPC: 0.939578 cumulative IPC: 1.04935 (Simulation time: 0 hr 22 min 14 sec) 
Heartbeat CPU 0 instructions: 45000002 cycles: 37191887 heartbeat IPC: 1.00834 cumulative IPC: 1.04813 (Simulation time: 0 hr 22 min 42 sec) 
Heartbeat CPU 0 instructions: 46000003 cycles: 37987617 heartbeat IPC: 1.25671 cumulative IPC: 1.05299 (Simulation time: 0 hr 23 min 12 sec) 
Heartbeat CPU 0 instructions: 47000000 cycles: 38841433 heartbeat IPC: 1.17121 cumulative IPC: 1.05587 (Simulation time: 0 hr 23 min 42 sec) 
Heartbeat CPU 0 instructions: 48000000 cycles: 39815003 heartbeat IPC: 1.02715 cumulative IPC: 1.05509 (Simulation time: 0 hr 24 min 16 sec) 
Heartbeat CPU 0 instructions: 49000000 cycles: 40636977 heartbeat IPC: 1.21658 cumulative IPC: 1.0587 (Simulation time: 0 hr 24 min 45 sec) 
Heartbeat CPU 0 instructions: 50000000 cycles: 41461960 heartbeat IPC: 1.21215 cumulative IPC: 1.06206 (Simulation time: 0 hr 25 min 17 sec) 
Heartbeat CPU 0 instructions: 51000001 cycles: 42652603 heartbeat IPC: 0.839883 cumulative IPC: 1.05525 (Simulation time: 0 hr 25 min 49 sec) 
Heartbeat CPU 0 instructions: 52000000 cycles: 43439434 heartbeat IPC: 1.27092 cumulative IPC: 1.05953 (Simulation time: 0 hr 26 min 16 sec) 
Heartbeat CPU 0 instructions: 53000002 cycles: 44290006 heartbeat IPC: 1.17568 cumulative IPC: 1.06197 (Simulation time: 0 hr 26 min 47 sec) 
Heartbeat CPU 0 instructions: 54000003 cycles: 45439687 heartbeat IPC: 0.869807 cumulative IPC: 1.05666 (Simulation time: 0 hr 27 min 19 sec) 
Heartbeat CPU 0 instructions: 55000001 cycles: 46315830 heartbeat IPC: 1.14136 cumulative IPC: 1.05841 (Simulation time: 0 hr 27 min 49 sec) 
Heartbeat CPU 0 instructions: 56000000 cycles: 47139710 heartbeat IPC: 1.21377 cumulative IPC: 1.06136 (Simulation time: 0 hr 28 min 18 sec) 
Heartbeat CPU 0 instructions: 57000000 cycles: 48125185 heartbeat IPC: 1.01474 cumulative IPC: 1.06033 (Simulation time: 0 hr 28 min 48 sec) 
Heartbeat CPU 0 instructions: 58000000 cycles: 49198547 heartbeat IPC: 0.931652 cumulative IPC: 1.05728 (Simulation time: 0 hr 29 min 18 sec) 
Heartbeat CPU 0 instructions: 59000002 cycles: 49988160 heartbeat IPC: 1.26645 cumulative IPC: 1.06086 (Simulation time: 0 hr 29 min 49 sec) 
Heartbeat CPU 0 instructions: 60000000 cycles: 50834699 heartbeat IPC: 1.18128 cumulative IPC: 1.06303 (Simulation time: 0 hr 30 min 18 sec) 
Heartbeat CPU 0 instructions: 61000000 cycles: 52176517 heartbeat IPC: 0.745258 cumulative IPC: 1.05421 (Simulation time: 0 hr 30 min 49 sec) 
Heartbeat CPU 0 instructions: 62000002 cycles: 53319279 heartbeat IPC: 0.875075 cumulative IPC: 1.05008 (Simulation time: 0 hr 31 min 26 sec) 
Heartbeat CPU 0 instructions: 63000001 cycles: 54115496 heartbeat IPC: 1.25594 cumulative IPC: 1.05334 (Simulation time: 0 hr 31 min 59 sec) 
Heartbeat CPU 0 instructions: 64000000 cycles: 54949309 heartbeat IPC: 1.19931 cumulative IPC: 1.05572 (Simulation time: 0 hr 32 min 35 sec) 
Heartbeat CPU 0 instructions: 65000000 cycles: 56028896 heartbeat IPC: 0.92628 cumulative IPC: 1.05304 (Simulation time: 0 hr 33 min 8 sec) 
Heartbeat CPU 0 instructions: 66000001 cycles: 56983250 heartbeat IPC: 1.04783 cumulative IPC: 1.05295 (Simulation time: 0 hr 33 min 47 sec) 
Heartbeat CPU 0 instructions: 67000000 cycles: 57786944 heartbeat IPC: 1.24425 cumulative IPC: 1.05579 (Simulation time: 0 hr 34 min 18 sec) 
Heartbeat CPU 0 instructions: 68000000 cycles: 58692915 heartbeat IPC: 1.10379 cumulative IPC: 1.05659 (Simulation time: 0 hr 34 min 56 sec) 
Heartbeat CPU 0 instructions: 69000003 cycles: 59799274 heartbeat IPC: 0.903868 cumulative IPC: 1.05357 (Simulation time: 0 hr 35 min 28 sec) 
Heartbeat CPU 0 instructions: 70000001 cycles: 60625903 heartbeat IPC: 1.20973 cumulative IPC: 1.05584 (Simulation time: 0 hr 35 min 58 sec) 
Heartbeat CPU 0 instructions: 71000001 cycles: 61475535 heartbeat IPC: 1.17698 cumulative IPC: 1.05763 (Simulation time: 0 hr 36 min 32 sec) 
Heartbeat CPU 0 instructions: 72000000 cycles: 62681371 heartbeat IPC: 0.829299 cumulative IPC: 1.05295 (Simulation time: 0 hr 37 min 8 sec) 
Heartbeat CPU 0 instructions: 73000001 cycles: 63480088 heartbeat IPC: 1.25201 cumulative IPC: 1.05561 (Simulation time: 0 hr 37 min 37 sec) 
Heartbeat CPU 0 instructions: 74000001 cycles: 64320379 heartbeat IPC: 1.19006 cumulative IPC: 1.05748 (Simulation time: 0 hr 38 min 11 sec) 
Heartbeat CPU 0 instructions: 75000003 cycles: 65420460 heartbeat IPC: 0.909026 cumulative IPC: 1.05483 (Simulation time: 0 hr 38 min 43 sec) 
Heartbeat CPU 0 instructions: 76000000 cycles: 66330474 heartbeat IPC: 1.09888 cumulative IPC: 1.05547 (Simulation time: 0 hr 39 min 13 sec) 
Heartbeat CPU 0 instructions: 77000002 cycles: 67142306 heartbeat IPC: 1.23178 cumulative IPC: 1.05773 (Simulation time: 0 hr 39 min 43 sec) 
Heartbeat CPU 0 instructions: 78000002 cycles: 68080557 heartbeat IPC: 1.06581 cumulative IPC: 1.05785 (Simulation time: 0 hr 40 min 17 sec) 
Heartbeat CPU 0 instructions: 79000001 cycles: 69136042 heartbeat IPC: 0.947431 cumulative IPC: 1.05607 (Simulation time: 0 hr 40 min 47 sec) 
Heartbeat CPU 0 instructions: 80000000 cycles: 69934494 heartbeat IPC: 1.25242 cumulative IPC: 1.05844 (Simulation time: 0 hr 41 min 17 sec) 
Heartbeat CPU 0 instructions: 81000001 cycles: 70785290 heartbeat IPC: 1.17537 cumulative IPC: 1.05992 (Simulation time: 0 hr 41 min 51 sec) 
Heartbeat CPU 0 instructions: 82000000 cycles: 71947537 heartbeat IPC: 0.860401 cumulative IPC: 1.05652 (Simulation time: 0 hr 42 min 21 sec) 
Heartbeat CPU 0 instructions: 83000001 cycles: 72731519 heartbeat IPC: 1.27554 cumulative IPC: 1.05901 (Simulation time: 0 hr 42 min 51 sec) 
Heartbeat CPU 0 instructions: 84000000 cycles: 73589482 heartbeat IPC: 1.16555 cumulative IPC: 1.06032 (Simulation time: 0 hr 43 min 21 sec) 
Heartbeat CPU 0 instructions: 85000002 cycles: 74735569 heartbeat IPC: 0.872536 cumulative IPC: 1.05729 (Simulation time: 0 hr 43 min 55 sec) 
Heartbeat CPU 0 instructions: 86000003 cycles: 75590134 heartbeat IPC: 1.17019 cumulative IPC: 1.05863 (Simulation time: 0 hr 44 min 24 sec) 
Heartbeat CPU 0 instructions: 87000001 cycles: 76410298 heartbeat IPC: 1.21927 cumulative IPC: 1.06044 (Simulation time: 0 hr 44 min 52 sec) 
Heartbeat CPU 0 instructions: 88000000 cycles: 77439733 heartbeat IPC: 0.971406 cumulative IPC: 1.0592 (Simulation time: 0 hr 45 min 23 sec) 
Heartbeat CPU 0 instructions: 89000000 cycles: 78423433 heartbeat IPC: 1.01657 cumulative IPC: 1.05864 (Simulation time: 0 hr 45 min 52 sec) 
Heartbeat CPU 0 instructions: 90000003 cycles: 79216866 heartbeat IPC: 1.26035 cumulative IPC: 1.06076 (Simulation time: 0 hr 46 min 27 sec) 
Heartbeat CPU 0 instructions: 91000000 cycles: 80079920 heartbeat IPC: 1.15867 cumulative IPC: 1.06187 (Simulation time: 0 hr 46 min 58 sec) 
Heartbeat CPU 0 instructions: 92000000 cycles: 81242315 heartbeat IPC: 0.860293 cumulative IPC: 1.05884 (Simulation time: 0 hr 47 min 27 sec) 
Heartbeat CPU 0 instructions: 93000001 cycles: 82038776 heartbeat IPC: 1.25556 cumulative IPC: 1.06084 (Simulation time: 0 hr 48 min 0 sec) 
Heartbeat CPU 0 instructions: 94000000 cycles: 82888360 heartbeat IPC: 1.17705 cumulative IPC: 1.06209 (Simulation time: 0 hr 48 min 29 sec) 
Heartbeat CPU 0 instructions: 95000002 cycles: 84098124 heartbeat IPC: 0.826609 cumulative IPC: 1.05854 (Simulation time: 0 hr 49 min 2 sec) 
Heartbeat CPU 0 instructions: 96000000 cycles: 84910326 heartbeat IPC: 1.23122 cumulative IPC: 1.06027 (Simulation time: 0 hr 49 min 31 sec) 
Heartbeat CPU 0 instructions: 97000002 cycles: 85751109 heartbeat IPC: 1.18937 cumulative IPC: 1.0616 (Simulation time: 0 hr 50 min 1 sec) 
Heartbeat CPU 0 instructions: 98000000 cycles: 86859113 heartbeat IPC: 0.902522 cumulative IPC: 1.05948 (Simulation time: 0 hr 50 min 31 sec) 
Heartbeat CPU 0 instructions: 99000003 cycles: 87931687 heartbeat IPC: 0.932339 cumulative IPC: 1.05786 (Simulation time: 0 hr 50 min 59 sec) 
Heartbeat CPU 0 instructions: 100000000 cycles: 88705702 heartbeat IPC: 1.29196 cumulative IPC: 1.05999 (Simulation time: 0 hr 51 min 26 sec) 
Heartbeat CPU 0 instructions: 101000000 cycles: 89570429 heartbeat IPC: 1.15643 cumulative IPC: 1.06096 (Simulation time: 0 hr 51 min 55 sec) 
Heartbeat CPU 0 instructions: 102000001 cycles: 91028637 heartbeat IPC: 0.685774 cumulative IPC: 1.05469 (Simulation time: 0 hr 52 min 24 sec) 
Heartbeat CPU 0 instructions: 103000000 cycles: 92296476 heartbeat IPC: 0.788743 cumulative IPC: 1.05088 (Simulation time: 0 hr 52 min 56 sec) 
Heartbeat CPU 0 instructions: 104000000 cycles: 93230202 heartbeat IPC: 1.07098 cumulative IPC: 1.05109 (Simulation time: 0 hr 53 min 25 sec) 
Heartbeat CPU 0 instructions: 105000003 cycles: 94031186 heartbeat IPC: 1.24847 cumulative IPC: 1.05284 (Simulation time: 0 hr 53 min 52 sec) 
Heartbeat CPU 0 instructions: 106000000 cycles: 94924400 heartbeat IPC: 1.11955 cumulative IPC: 1.0535 (Simulation time: 0 hr 54 min 18 sec) 
Heartbeat CPU 0 instructions: 107000001 cycles: 96387406 heartbeat IPC: 0.683525 cumulative IPC: 1.04765 (Simulation time: 0 hr 54 min 47 sec) 
Heartbeat CPU 0 instructions: 108000000 cycles: 97276223 heartbeat IPC: 1.12509 cumulative IPC: 1.04839 (Simulation time: 0 hr 55 min 12 sec) 
Heartbeat CPU 0 instructions: 109000000 cycles: 98102800 heartbeat IPC: 1.20981 cumulative IPC: 1.0498 (Simulation time: 0 hr 55 min 36 sec) 
Heartbeat CPU 0 instructions: 110000000 cycles: 99244973 heartbeat IPC: 0.875524 cumulative IPC: 1.04772 (Simulation time: 0 hr 56 min 1 sec) 
Finished CPU 0 instructions: 100000000 cycles: 95445790 cummulative IPC: 1.04772 (Simulation time: 0 hr 56 min 1 sec) 

ChampSim completed all CPUs

Region of Interest Statistics

CPU 0 cummulative IPC: 1.04772 instructions: 100000000 cycles: 95445790
LLC TOTAL     ACCESS:    1574054  HIT:     828377  MISS:     745677
LLC LOAD      ACCESS:     202231  HIT:     169054  MISS:      33177
LLC RFO       ACCESS:     111345  HIT:     109826  MISS:       1519
LLC PREFETCH  ACCESS:    1127320  HIT:     418839  MISS:     708481
LLC WRITEBACK ACCESS:     133158  HIT:     130658  MISS:       2500
Insertion Distribution: 
	LOAD 8806 0 13159 20175 
	RFO 1124 0 3789 144 
	PREF 0 6294 91583 693546 
	WRITEBACK 0 0 0 2832 
Total Prefetch Downgrades: 9204
