
*** ChampSim Multicore Out-of-Order Simulator ***

Warmup Instructions: 10000000
Simulation Instructions: 100000000
Configuration: 2
Number of CPUs: 1
LLC sets: 2048
LLC ways: 16
Off-chip DRAM Channels: 1 Width: 64-bit Data Rate: 1600 MT/s

CPU 0 runs /datasets/cs240c-wi22-a00-public/data/Assignment2-gz/leslie3d_94B.trace.gz
CPU 0 L1D next line prefetcher
CPU 0 L2C IP-based stride prefetcher
Initialize SRRIP state
Heartbeat CPU 0 instructions: 1000003 cycles: 597056 heartbeat IPC: 1.67489 cumulative IPC: 1.67489 (Simulation time: 0 hr 1 min 0 sec) 
Heartbeat CPU 0 instructions: 2000002 cycles: 1215907 heartbeat IPC: 1.6159 cumulative IPC: 1.64486 (Simulation time: 0 hr 2 min 2 sec) 
Heartbeat CPU 0 instructions: 3000003 cycles: 1867671 heartbeat IPC: 1.5343 cumulative IPC: 1.60628 (Simulation time: 0 hr 3 min 8 sec) 
Heartbeat CPU 0 instructions: 4000000 cycles: 2518897 heartbeat IPC: 1.53556 cumulative IPC: 1.588 (Simulation time: 0 hr 4 min 18 sec) 
Heartbeat CPU 0 instructions: 5000002 cycles: 3083890 heartbeat IPC: 1.76994 cumulative IPC: 1.62133 (Simulation time: 0 hr 5 min 24 sec) 
Heartbeat CPU 0 instructions: 6000002 cycles: 3734519 heartbeat IPC: 1.53697 cumulative IPC: 1.60663 (Simulation time: 0 hr 6 min 31 sec) 
Heartbeat CPU 0 instructions: 7000000 cycles: 4385211 heartbeat IPC: 1.53682 cumulative IPC: 1.59627 (Simulation time: 0 hr 7 min 34 sec) 
Heartbeat CPU 0 instructions: 8000000 cycles: 4950193 heartbeat IPC: 1.76997 cumulative IPC: 1.6161 (Simulation time: 0 hr 8 min 28 sec) 
Heartbeat CPU 0 instructions: 9000000 cycles: 5601025 heartbeat IPC: 1.53649 cumulative IPC: 1.60685 (Simulation time: 0 hr 9 min 31 sec) 
Heartbeat CPU 0 instructions: 10000001 cycles: 6252201 heartbeat IPC: 1.53568 cumulative IPC: 1.59944 (Simulation time: 0 hr 10 min 31 sec) 

Warmup complete CPU 0 instructions: 10000001 cycles: 6252201 (Simulation time: 0 hr 10 min 31 sec) 

Heartbeat CPU 0 instructions: 11000000 cycles: 7487677 heartbeat IPC: 0.809404 cumulative IPC: 0.809404 (Simulation time: 0 hr 11 min 30 sec) 
Heartbeat CPU 0 instructions: 12000000 cycles: 9303566 heartbeat IPC: 0.550694 cumulative IPC: 0.655444 (Simulation time: 0 hr 12 min 37 sec) 
Heartbeat CPU 0 instructions: 13000000 cycles: 11040325 heartbeat IPC: 0.575785 cumulative IPC: 0.62655 (Simulation time: 0 hr 13 min 38 sec) 
Heartbeat CPU 0 instructions: 14000001 cycles: 12867597 heartbeat IPC: 0.547264 cumulative IPC: 0.60465 (Simulation time: 0 hr 14 min 41 sec) 
Heartbeat CPU 0 instructions: 15000001 cycles: 14552814 heartbeat IPC: 0.593395 cumulative IPC: 0.602365 (Simulation time: 0 hr 15 min 48 sec) 
Heartbeat CPU 0 instructions: 16000000 cycles: 16379531 heartbeat IPC: 0.54743 cumulative IPC: 0.592456 (Simulation time: 0 hr 16 min 54 sec) 
Heartbeat CPU 0 instructions: 17000001 cycles: 18166225 heartbeat IPC: 0.559694 cumulative IPC: 0.587543 (Simulation time: 0 hr 17 min 59 sec) 
Heartbeat CPU 0 instructions: 18000002 cycles: 19978757 heartbeat IPC: 0.551715 cumulative IPC: 0.582812 (Simulation time: 0 hr 19 min 12 sec) 
Heartbeat CPU 0 instructions: 19000001 cycles: 21772139 heartbeat IPC: 0.557605 cumulative IPC: 0.579899 (Simulation time: 0 hr 20 min 24 sec) 
Heartbeat CPU 0 instructions: 20000000 cycles: 23479516 heartbeat IPC: 0.585693 cumulative IPC: 0.580473 (Simulation time: 0 hr 21 min 32 sec) 
Heartbeat CPU 0 instructions: 21000002 cycles: 25111299 heartbeat IPC: 0.612828 cumulative IPC: 0.583273 (Simulation time: 0 hr 22 min 45 sec) 
Heartbeat CPU 0 instructions: 22000002 cycles: 27383067 heartbeat IPC: 0.440186 cumulative IPC: 0.56789 (Simulation time: 0 hr 24 min 2 sec) 
Heartbeat CPU 0 instructions: 23000000 cycles: 29694276 heartbeat IPC: 0.432673 cumulative IPC: 0.554558 (Simulation time: 0 hr 25 min 18 sec) 
Heartbeat CPU 0 instructions: 24000000 cycles: 32019498 heartbeat IPC: 0.430066 cumulative IPC: 0.543324 (Simulation time: 0 hr 26 min 35 sec) 
Heartbeat CPU 0 instructions: 25000000 cycles: 34380435 heartbeat IPC: 0.423561 cumulative IPC: 0.533272 (Simulation time: 0 hr 27 min 41 sec) 
Heartbeat CPU 0 instructions: 26000002 cycles: 36649232 heartbeat IPC: 0.440763 cumulative IPC: 0.526367 (Simulation time: 0 hr 28 min 56 sec) 
Heartbeat CPU 0 instructions: 27000001 cycles: 38988748 heartbeat IPC: 0.427438 cumulative IPC: 0.519297 (Simulation time: 0 hr 30 min 16 sec) 
Heartbeat CPU 0 instructions: 28000000 cycles: 41350569 heartbeat IPC: 0.423402 cumulative IPC: 0.512844 (Simulation time: 0 hr 31 min 39 sec) 
Heartbeat CPU 0 instructions: 29000000 cycles: 43671070 heartbeat IPC: 0.430941 cumulative IPC: 0.507765 (Simulation time: 0 hr 33 min 2 sec) 
Heartbeat CPU 0 instructions: 30000000 cycles: 45018171 heartbeat IPC: 0.742335 cumulative IPC: 0.515916 (Simulation time: 0 hr 34 min 10 sec) 
Heartbeat CPU 0 instructions: 31000002 cycles: 46253033 heartbeat IPC: 0.809809 cumulative IPC: 0.524989 (Simulation time: 0 hr 35 min 19 sec) 
Heartbeat CPU 0 instructions: 32000000 cycles: 47518134 heartbeat IPC: 0.790449 cumulative IPC: 0.533127 (Simulation time: 0 hr 36 min 29 sec) 
Heartbeat CPU 0 instructions: 33000001 cycles: 48762321 heartbeat IPC: 0.803739 cumulative IPC: 0.541048 (Simulation time: 0 hr 37 min 27 sec) 
Heartbeat CPU 0 instructions: 34000003 cycles: 50045114 heartbeat IPC: 0.779551 cumulative IPC: 0.548034 (Simulation time: 0 hr 38 min 31 sec) 
Heartbeat CPU 0 instructions: 35000001 cycles: 51302477 heartbeat IPC: 0.795314 cumulative IPC: 0.554936 (Simulation time: 0 hr 39 min 34 sec) 
Heartbeat CPU 0 instructions: 36000000 cycles: 52609473 heartbeat IPC: 0.765113 cumulative IPC: 0.560861 (Simulation time: 0 hr 40 min 44 sec) 
Heartbeat CPU 0 instructions: 37000003 cycles: 53873590 heartbeat IPC: 0.791068 cumulative IPC: 0.566972 (Simulation time: 0 hr 41 min 52 sec) 
Heartbeat CPU 0 instructions: 38000000 cycles: 55142413 heartbeat IPC: 0.78813 cumulative IPC: 0.572712 (Simulation time: 0 hr 42 min 53 sec) 
Heartbeat CPU 0 instructions: 39000002 cycles: 56423873 heartbeat IPC: 0.780361 cumulative IPC: 0.578015 (Simulation time: 0 hr 44 min 1 sec) 
Heartbeat CPU 0 instructions: 40000000 cycles: 57671355 heartbeat IPC: 0.801613 cumulative IPC: 0.58344 (Simulation time: 0 hr 45 min 8 sec) 
Heartbeat CPU 0 instructions: 41000002 cycles: 58985338 heartbeat IPC: 0.761046 cumulative IPC: 0.587866 (Simulation time: 0 hr 46 min 12 sec) 
Heartbeat CPU 0 instructions: 42000002 cycles: 60245743 heartbeat IPC: 0.793396 cumulative IPC: 0.592663 (Simulation time: 0 hr 47 min 8 sec) 
Heartbeat CPU 0 instructions: 43000002 cycles: 61552271 heartbeat IPC: 0.765387 cumulative IPC: 0.596744 (Simulation time: 0 hr 48 min 14 sec) 
Heartbeat CPU 0 instructions: 44000000 cycles: 62812425 heartbeat IPC: 0.793552 cumulative IPC: 0.601129 (Simulation time: 0 hr 49 min 15 sec) 
Heartbeat CPU 0 instructions: 45000003 cycles: 64087451 heartbeat IPC: 0.7843 cumulative IPC: 0.605167 (Simulation time: 0 hr 50 min 23 sec) 
Heartbeat CPU 0 instructions: 46000001 cycles: 65399849 heartbeat IPC: 0.761962 cumulative IPC: 0.608646 (Simulation time: 0 hr 51 min 15 sec) 
Heartbeat CPU 0 instructions: 47000000 cycles: 66662707 heartbeat IPC: 0.791854 cumulative IPC: 0.612476 (Simulation time: 0 hr 52 min 9 sec) 
Heartbeat CPU 0 instructions: 48000000 cycles: 67997099 heartbeat IPC: 0.749405 cumulative IPC: 0.615435 (Simulation time: 0 hr 53 min 6 sec) 
Heartbeat CPU 0 instructions: 49000001 cycles: 69262208 heartbeat IPC: 0.790447 cumulative IPC: 0.618949 (Simulation time: 0 hr 54 min 3 sec) 
Heartbeat CPU 0 instructions: 50000001 cycles: 70571715 heartbeat IPC: 0.763646 cumulative IPC: 0.621895 (Simulation time: 0 hr 54 min 49 sec) 
Heartbeat CPU 0 instructions: 51000003 cycles: 71856866 heartbeat IPC: 0.77812 cumulative IPC: 0.624956 (Simulation time: 0 hr 55 min 34 sec) 
Heartbeat CPU 0 instructions: 52000000 cycles: 73125453 heartbeat IPC: 0.788276 cumulative IPC: 0.628054 (Simulation time: 0 hr 56 min 22 sec) 
Heartbeat CPU 0 instructions: 53000002 cycles: 74454011 heartbeat IPC: 0.752697 cumulative IPC: 0.630482 (Simulation time: 0 hr 57 min 2 sec) 
Heartbeat CPU 0 instructions: 54000001 cycles: 75720896 heartbeat IPC: 0.789337 cumulative IPC: 0.633379 (Simulation time: 0 hr 57 min 34 sec) 
Heartbeat CPU 0 instructions: 55000000 cycles: 77035001 heartbeat IPC: 0.760973 cumulative IPC: 0.635748 (Simulation time: 0 hr 58 min 12 sec) 
Heartbeat CPU 0 instructions: 56000000 cycles: 78315133 heartbeat IPC: 0.781169 cumulative IPC: 0.638331 (Simulation time: 0 hr 58 min 42 sec) 
Heartbeat CPU 0 instructions: 57000000 cycles: 79610933 heartbeat IPC: 0.771724 cumulative IPC: 0.640687 (Simulation time: 0 hr 59 min 16 sec) 
Heartbeat CPU 0 instructions: 58000001 cycles: 80887657 heartbeat IPC: 0.783255 cumulative IPC: 0.643126 (Simulation time: 0 hr 59 min 48 sec) 
Heartbeat CPU 0 instructions: 59000000 cycles: 82148442 heartbeat IPC: 0.793156 cumulative IPC: 0.645618 (Simulation time: 1 hr 0 min 20 sec) 
Heartbeat CPU 0 instructions: 60000000 cycles: 83451132 heartbeat IPC: 0.767642 cumulative IPC: 0.647677 (Simulation time: 1 hr 0 min 52 sec) 
Heartbeat CPU 0 instructions: 61000001 cycles: 84731308 heartbeat IPC: 0.781143 cumulative IPC: 0.649854 (Simulation time: 1 hr 1 min 25 sec) 
Heartbeat CPU 0 instructions: 62000000 cycles: 86011027 heartbeat IPC: 0.781421 cumulative IPC: 0.651965 (Simulation time: 1 hr 1 min 53 sec) 
Heartbeat CPU 0 instructions: 63000001 cycles: 87273740 heartbeat IPC: 0.791946 cumulative IPC: 0.654147 (Simulation time: 1 hr 2 min 20 sec) 
Heartbeat CPU 0 instructions: 64000000 cycles: 88564292 heartbeat IPC: 0.774861 cumulative IPC: 0.65604 (Simulation time: 1 hr 2 min 48 sec) 
Heartbeat CPU 0 instructions: 65000000 cycles: 89838781 heartbeat IPC: 0.784628 cumulative IPC: 0.658 (Simulation time: 1 hr 3 min 17 sec) 
Heartbeat CPU 0 instructions: 66000000 cycles: 91120224 heartbeat IPC: 0.78037 cumulative IPC: 0.659848 (Simulation time: 1 hr 3 min 41 sec) 
Heartbeat CPU 0 instructions: 67000003 cycles: 92407765 heartbeat IPC: 0.776677 cumulative IPC: 0.661594 (Simulation time: 1 hr 4 min 2 sec) 
Heartbeat CPU 0 instructions: 68000000 cycles: 93685892 heartbeat IPC: 0.782393 cumulative IPC: 0.66336 (Simulation time: 1 hr 4 min 20 sec) 
Heartbeat CPU 0 instructions: 69000000 cycles: 94979511 heartbeat IPC: 0.773025 cumulative IPC: 0.664959 (Simulation time: 1 hr 4 min 36 sec) 
Heartbeat CPU 0 instructions: 70000001 cycles: 96248443 heartbeat IPC: 0.788065 cumulative IPC: 0.666695 (Simulation time: 1 hr 4 min 51 sec) 
Heartbeat CPU 0 instructions: 71000002 cycles: 97557060 heartbeat IPC: 0.764166 cumulative IPC: 0.668092 (Simulation time: 1 hr 5 min 6 sec) 
Heartbeat CPU 0 instructions: 72000000 cycles: 98820109 heartbeat IPC: 0.791733 cumulative IPC: 0.669779 (Simulation time: 1 hr 5 min 21 sec) 
Heartbeat CPU 0 instructions: 73000000 cycles: 100113645 heartbeat IPC: 0.773075 cumulative IPC: 0.671202 (Simulation time: 1 hr 5 min 35 sec) 
Heartbeat CPU 0 instructions: 74000000 cycles: 101389419 heartbeat IPC: 0.783838 cumulative IPC: 0.672713 (Simulation time: 1 hr 5 min 50 sec) 
Heartbeat CPU 0 instructions: 75000002 cycles: 102658394 heartbeat IPC: 0.788039 cumulative IPC: 0.674231 (Simulation time: 1 hr 6 min 4 sec) 
Heartbeat CPU 0 instructions: 76000000 cycles: 103963422 heartbeat IPC: 0.766266 cumulative IPC: 0.67546 (Simulation time: 1 hr 6 min 17 sec) 
Heartbeat CPU 0 instructions: 77000000 cycles: 105228755 heartbeat IPC: 0.790306 cumulative IPC: 0.676928 (Simulation time: 1 hr 6 min 30 sec) 
Heartbeat CPU 0 instructions: 78000003 cycles: 106552452 heartbeat IPC: 0.755462 cumulative IPC: 0.677964 (Simulation time: 1 hr 6 min 40 sec) 
Heartbeat CPU 0 instructions: 79000000 cycles: 108017493 heartbeat IPC: 0.682573 cumulative IPC: 0.678031 (Simulation time: 1 hr 6 min 48 sec) 
Heartbeat CPU 0 instructions: 80000000 cycles: 109672550 heartbeat IPC: 0.604209 cumulative IPC: 0.676849 (Simulation time: 1 hr 6 min 56 sec) 
Heartbeat CPU 0 instructions: 81000002 cycles: 111293038 heartbeat IPC: 0.617099 cumulative IPC: 0.675928 (Simulation time: 1 hr 7 min 4 sec) 
Heartbeat CPU 0 instructions: 82000003 cycles: 112960417 heartbeat IPC: 0.599744 cumulative IPC: 0.674737 (Simulation time: 1 hr 7 min 12 sec) 
Heartbeat CPU 0 instructions: 83000003 cycles: 114647407 heartbeat IPC: 0.592772 cumulative IPC: 0.673462 (Simulation time: 1 hr 7 min 19 sec) 
Heartbeat CPU 0 instructions: 84000000 cycles: 116278524 heartbeat IPC: 0.613075 cumulative IPC: 0.672566 (Simulation time: 1 hr 7 min 24 sec) 
Heartbeat CPU 0 instructions: 85000001 cycles: 117942312 heartbeat IPC: 0.601039 cumulative IPC: 0.671501 (Simulation time: 1 hr 7 min 30 sec) 
Heartbeat CPU 0 instructions: 86000002 cycles: 119578142 heartbeat IPC: 0.611311 cumulative IPC: 0.670632 (Simulation time: 1 hr 7 min 35 sec) 
Heartbeat CPU 0 instructions: 87000000 cycles: 121228432 heartbeat IPC: 0.605953 cumulative IPC: 0.669704 (Simulation time: 1 hr 7 min 40 sec) 
Heartbeat CPU 0 instructions: 88000000 cycles: 122896978 heartbeat IPC: 0.599324 cumulative IPC: 0.668697 (Simulation time: 1 hr 7 min 45 sec) 
Heartbeat CPU 0 instructions: 89000002 cycles: 124535740 heartbeat IPC: 0.610218 cumulative IPC: 0.667887 (Simulation time: 1 hr 7 min 50 sec) 
Heartbeat CPU 0 instructions: 90000001 cycles: 126180953 heartbeat IPC: 0.607823 cumulative IPC: 0.667063 (Simulation time: 1 hr 7 min 55 sec) 
Heartbeat CPU 0 instructions: 91000003 cycles: 127824188 heartbeat IPC: 0.608557 cumulative IPC: 0.666272 (Simulation time: 1 hr 8 min 0 sec) 
Heartbeat CPU 0 instructions: 92000000 cycles: 129477519 heartbeat IPC: 0.604838 cumulative IPC: 0.665448 (Simulation time: 1 hr 8 min 5 sec) 
Heartbeat CPU 0 instructions: 93000001 cycles: 131157345 heartbeat IPC: 0.5953 cumulative IPC: 0.664504 (Simulation time: 1 hr 8 min 10 sec) 
Heartbeat CPU 0 instructions: 94000003 cycles: 132823228 heartbeat IPC: 0.600283 cumulative IPC: 0.663659 (Simulation time: 1 hr 8 min 15 sec) 
Heartbeat CPU 0 instructions: 95000002 cycles: 134534284 heartbeat IPC: 0.584434 cumulative IPC: 0.662602 (Simulation time: 1 hr 8 min 20 sec) 
Heartbeat CPU 0 instructions: 96000000 cycles: 136184972 heartbeat IPC: 0.605807 cumulative IPC: 0.661881 (Simulation time: 1 hr 8 min 26 sec) 
Heartbeat CPU 0 instructions: 97000003 cycles: 138129692 heartbeat IPC: 0.514214 cumulative IPC: 0.659703 (Simulation time: 1 hr 8 min 31 sec) 
Heartbeat CPU 0 instructions: 98000002 cycles: 143310786 heartbeat IPC: 0.193009 cumulative IPC: 0.642061 (Simulation time: 1 hr 8 min 41 sec) 
Heartbeat CPU 0 instructions: 99000000 cycles: 146305641 heartbeat IPC: 0.333905 cumulative IPC: 0.635472 (Simulation time: 1 hr 8 min 50 sec) 
Heartbeat CPU 0 instructions: 100000000 cycles: 147958616 heartbeat IPC: 0.60497 cumulative IPC: 0.635116 (Simulation time: 1 hr 8 min 55 sec) 
Heartbeat CPU 0 instructions: 101000002 cycles: 149204584 heartbeat IPC: 0.80259 cumulative IPC: 0.636576 (Simulation time: 1 hr 8 min 59 sec) 
Heartbeat CPU 0 instructions: 102000003 cycles: 150546102 heartbeat IPC: 0.745425 cumulative IPC: 0.637588 (Simulation time: 1 hr 9 min 3 sec) 
Heartbeat CPU 0 instructions: 103000002 cycles: 151951688 heartbeat IPC: 0.711446 cumulative IPC: 0.6383 (Simulation time: 1 hr 9 min 7 sec) 
Heartbeat CPU 0 instructions: 104000000 cycles: 153454080 heartbeat IPC: 0.665604 cumulative IPC: 0.638579 (Simulation time: 1 hr 9 min 12 sec) 
Heartbeat CPU 0 instructions: 105000001 cycles: 154981606 heartbeat IPC: 0.654654 cumulative IPC: 0.638744 (Simulation time: 1 hr 9 min 16 sec) 
Heartbeat CPU 0 instructions: 106000001 cycles: 156506266 heartbeat IPC: 0.655884 cumulative IPC: 0.638918 (Simulation time: 1 hr 9 min 21 sec) 
Heartbeat CPU 0 instructions: 107000001 cycles: 158043792 heartbeat IPC: 0.650396 cumulative IPC: 0.639034 (Simulation time: 1 hr 9 min 25 sec) 
Heartbeat CPU 0 instructions: 108000000 cycles: 159577270 heartbeat IPC: 0.652112 cumulative IPC: 0.639165 (Simulation time: 1 hr 9 min 30 sec) 
Heartbeat CPU 0 instructions: 109000001 cycles: 161094852 heartbeat IPC: 0.658944 cumulative IPC: 0.639359 (Simulation time: 1 hr 9 min 34 sec) 
Heartbeat CPU 0 instructions: 110000001 cycles: 162632119 heartbeat IPC: 0.650505 cumulative IPC: 0.639468 (Simulation time: 1 hr 9 min 39 sec) 
Finished CPU 0 instructions: 100000000 cycles: 156379918 cummulative IPC: 0.639468 (Simulation time: 1 hr 9 min 39 sec) 

ChampSim completed all CPUs

Region of Interest Statistics

CPU 0 cummulative IPC: 0.639468 instructions: 100000000 cycles: 156379918
LLC TOTAL     ACCESS:    4600632  HIT:    1100469  MISS:    3500163
LLC LOAD      ACCESS:     466292  HIT:     135174  MISS:     331118
LLC RFO       ACCESS:     742617  HIT:      96099  MISS:     646518
LLC PREFETCH  ACCESS:    2291405  HIT:     516564  MISS:    1774841
LLC WRITEBACK ACCESS:    1100318  HIT:     352632  MISS:     747686
Insertion Distribution: 
	LOAD 31930 0 74406 228342 
	RFO 428 0 74022 574544 
	PREF 0 128863 326716 1494351 
	WRITEBACK 0 0 0 768397 
Total Prefetch Downgrades: 94482
