
*** ChampSim Multicore Out-of-Order Simulator ***

Warmup Instructions: 10000000
Simulation Instructions: 100000000
Configuration: 2
Number of CPUs: 1
LLC sets: 2048
LLC ways: 16
Off-chip DRAM Channels: 1 Width: 64-bit Data Rate: 1600 MT/s

CPU 0 runs /datasets/cs240c-wi22-a00-public/data/Assignment2-gz/cactusADM_1495B.trace.gz
CPU 0 L1D next line prefetcher
CPU 0 L2C IP-based stride prefetcher
Initialize SRRIP state
Heartbeat CPU 0 instructions: 1000003 cycles: 593383 heartbeat IPC: 1.68526 cumulative IPC: 1.68526 (Simulation time: 0 hr 0 min 37 sec) 
Heartbeat CPU 0 instructions: 2000000 cycles: 1186345 heartbeat IPC: 1.68644 cumulative IPC: 1.68585 (Simulation time: 0 hr 1 min 13 sec) 
Heartbeat CPU 0 instructions: 3000003 cycles: 1779703 heartbeat IPC: 1.68533 cumulative IPC: 1.68568 (Simulation time: 0 hr 1 min 48 sec) 
Heartbeat CPU 0 instructions: 4000000 cycles: 2372522 heartbeat IPC: 1.68685 cumulative IPC: 1.68597 (Simulation time: 0 hr 2 min 24 sec) 
Heartbeat CPU 0 instructions: 5000000 cycles: 2965579 heartbeat IPC: 1.68618 cumulative IPC: 1.68601 (Simulation time: 0 hr 3 min 0 sec) 
Heartbeat CPU 0 instructions: 6000001 cycles: 3558796 heartbeat IPC: 1.68573 cumulative IPC: 1.68596 (Simulation time: 0 hr 3 min 35 sec) 
Heartbeat CPU 0 instructions: 7000000 cycles: 4151738 heartbeat IPC: 1.6865 cumulative IPC: 1.68604 (Simulation time: 0 hr 4 min 9 sec) 
Heartbeat CPU 0 instructions: 8000000 cycles: 4906787 heartbeat IPC: 1.32442 cumulative IPC: 1.63039 (Simulation time: 0 hr 4 min 49 sec) 
Heartbeat CPU 0 instructions: 9000002 cycles: 5499988 heartbeat IPC: 1.68577 cumulative IPC: 1.63637 (Simulation time: 0 hr 5 min 24 sec) 
Heartbeat CPU 0 instructions: 10000002 cycles: 6092912 heartbeat IPC: 1.68656 cumulative IPC: 1.64125 (Simulation time: 0 hr 5 min 59 sec) 

Warmup complete CPU 0 instructions: 10000002 cycles: 6092912 (Simulation time: 0 hr 5 min 59 sec) 

Heartbeat CPU 0 instructions: 11000000 cycles: 7785032 heartbeat IPC: 0.590973 cumulative IPC: 0.590973 (Simulation time: 0 hr 6 min 39 sec) 
Heartbeat CPU 0 instructions: 12000000 cycles: 9528488 heartbeat IPC: 0.573573 cumulative IPC: 0.582143 (Simulation time: 0 hr 7 min 16 sec) 
Heartbeat CPU 0 instructions: 13000002 cycles: 11272962 heartbeat IPC: 0.57324 cumulative IPC: 0.579145 (Simulation time: 0 hr 7 min 53 sec) 
Heartbeat CPU 0 instructions: 14000001 cycles: 13008208 heartbeat IPC: 0.576287 cumulative IPC: 0.578428 (Simulation time: 0 hr 8 min 32 sec) 
Heartbeat CPU 0 instructions: 15000001 cycles: 14665532 heartbeat IPC: 0.603382 cumulative IPC: 0.583252 (Simulation time: 0 hr 9 min 11 sec) 
Heartbeat CPU 0 instructions: 16000000 cycles: 16386987 heartbeat IPC: 0.580903 cumulative IPC: 0.582859 (Simulation time: 0 hr 9 min 49 sec) 
Heartbeat CPU 0 instructions: 17000003 cycles: 18131036 heartbeat IPC: 0.57338 cumulative IPC: 0.581486 (Simulation time: 0 hr 10 min 31 sec) 
Heartbeat CPU 0 instructions: 18000000 cycles: 19876689 heartbeat IPC: 0.57285 cumulative IPC: 0.580392 (Simulation time: 0 hr 11 min 12 sec) 
Heartbeat CPU 0 instructions: 19000002 cycles: 21586989 heartbeat IPC: 0.584694 cumulative IPC: 0.580867 (Simulation time: 0 hr 11 min 50 sec) 
Heartbeat CPU 0 instructions: 20000000 cycles: 23253337 heartbeat IPC: 0.600114 cumulative IPC: 0.582736 (Simulation time: 0 hr 12 min 28 sec) 
Heartbeat CPU 0 instructions: 21000001 cycles: 29569273 heartbeat IPC: 0.15833 cumulative IPC: 0.468556 (Simulation time: 0 hr 13 min 12 sec) 
Heartbeat CPU 0 instructions: 22000000 cycles: 31661417 heartbeat IPC: 0.477978 cumulative IPC: 0.469327 (Simulation time: 0 hr 13 min 54 sec) 
Heartbeat CPU 0 instructions: 23000001 cycles: 33393259 heartbeat IPC: 0.57742 cumulative IPC: 0.476184 (Simulation time: 0 hr 14 min 33 sec) 
Heartbeat CPU 0 instructions: 24000000 cycles: 35048264 heartbeat IPC: 0.604227 cumulative IPC: 0.483503 (Simulation time: 0 hr 15 min 14 sec) 
Heartbeat CPU 0 instructions: 25000002 cycles: 36774369 heartbeat IPC: 0.57934 cumulative IPC: 0.488895 (Simulation time: 0 hr 15 min 58 sec) 
Heartbeat CPU 0 instructions: 26000000 cycles: 38527203 heartbeat IPC: 0.570504 cumulative IPC: 0.493305 (Simulation time: 0 hr 16 min 38 sec) 
Heartbeat CPU 0 instructions: 27000002 cycles: 40266502 heartbeat IPC: 0.574945 cumulative IPC: 0.49746 (Simulation time: 0 hr 17 min 17 sec) 
Heartbeat CPU 0 instructions: 28000000 cycles: 41974139 heartbeat IPC: 0.585603 cumulative IPC: 0.501655 (Simulation time: 0 hr 17 min 54 sec) 
Heartbeat CPU 0 instructions: 29000003 cycles: 43631408 heartbeat IPC: 0.603404 cumulative IPC: 0.506147 (Simulation time: 0 hr 18 min 42 sec) 
Heartbeat CPU 0 instructions: 30000000 cycles: 45398566 heartbeat IPC: 0.565879 cumulative IPC: 0.508833 (Simulation time: 0 hr 19 min 24 sec) 
Heartbeat CPU 0 instructions: 31000003 cycles: 47139720 heartbeat IPC: 0.574333 cumulative IPC: 0.511611 (Simulation time: 0 hr 20 min 10 sec) 
Heartbeat CPU 0 instructions: 32000000 cycles: 48877944 heartbeat IPC: 0.575298 cumulative IPC: 0.514198 (Simulation time: 0 hr 20 min 51 sec) 
Heartbeat CPU 0 instructions: 33000001 cycles: 50556661 heartbeat IPC: 0.595694 cumulative IPC: 0.517275 (Simulation time: 0 hr 21 min 33 sec) 
Heartbeat CPU 0 instructions: 34000002 cycles: 55976877 heartbeat IPC: 0.184495 cumulative IPC: 0.481117 (Simulation time: 0 hr 22 min 16 sec) 
Heartbeat CPU 0 instructions: 35000002 cycles: 58963851 heartbeat IPC: 0.334787 cumulative IPC: 0.47285 (Simulation time: 0 hr 22 min 56 sec) 
Heartbeat CPU 0 instructions: 36000000 cycles: 60700768 heartbeat IPC: 0.575732 cumulative IPC: 0.476122 (Simulation time: 0 hr 23 min 40 sec) 
Heartbeat CPU 0 instructions: 37000001 cycles: 62415018 heartbeat IPC: 0.583346 cumulative IPC: 0.479385 (Simulation time: 0 hr 24 min 24 sec) 
Heartbeat CPU 0 instructions: 38000003 cycles: 64068127 heartbeat IPC: 0.604922 cumulative IPC: 0.482965 (Simulation time: 0 hr 25 min 7 sec) 
Heartbeat CPU 0 instructions: 39000003 cycles: 65798505 heartbeat IPC: 0.577908 cumulative IPC: 0.485717 (Simulation time: 0 hr 25 min 50 sec) 
Heartbeat CPU 0 instructions: 40000000 cycles: 67537352 heartbeat IPC: 0.575092 cumulative IPC: 0.488246 (Simulation time: 0 hr 26 min 35 sec) 
Heartbeat CPU 0 instructions: 41000002 cycles: 69274013 heartbeat IPC: 0.575819 cumulative IPC: 0.490653 (Simulation time: 0 hr 27 min 16 sec) 
Heartbeat CPU 0 instructions: 42000000 cycles: 70953248 heartbeat IPC: 0.595508 cumulative IPC: 0.493368 (Simulation time: 0 hr 27 min 54 sec) 
Heartbeat CPU 0 instructions: 43000000 cycles: 72634213 heartbeat IPC: 0.594896 cumulative IPC: 0.495933 (Simulation time: 0 hr 28 min 32 sec) 
Heartbeat CPU 0 instructions: 44000000 cycles: 74372244 heartbeat IPC: 0.575364 cumulative IPC: 0.497954 (Simulation time: 0 hr 29 min 11 sec) 
Heartbeat CPU 0 instructions: 45000003 cycles: 76111327 heartbeat IPC: 0.575017 cumulative IPC: 0.499869 (Simulation time: 0 hr 29 min 50 sec) 
Heartbeat CPU 0 instructions: 46000002 cycles: 77842031 heartbeat IPC: 0.577799 cumulative IPC: 0.501748 (Simulation time: 0 hr 30 min 38 sec) 
Heartbeat CPU 0 instructions: 47000002 cycles: 82222299 heartbeat IPC: 0.228297 cumulative IPC: 0.486015 (Simulation time: 0 hr 31 min 25 sec) 
Heartbeat CPU 0 instructions: 48000000 cycles: 86185969 heartbeat IPC: 0.252291 cumulative IPC: 0.474448 (Simulation time: 0 hr 32 min 12 sec) 
Heartbeat CPU 0 instructions: 49000000 cycles: 87922670 heartbeat IPC: 0.575804 cumulative IPC: 0.476599 (Simulation time: 0 hr 32 min 51 sec) 
Heartbeat CPU 0 instructions: 50000000 cycles: 89660354 heartbeat IPC: 0.575479 cumulative IPC: 0.478655 (Simulation time: 0 hr 33 min 30 sec) 
Heartbeat CPU 0 instructions: 51000000 cycles: 91346578 heartbeat IPC: 0.593041 cumulative IPC: 0.480918 (Simulation time: 0 hr 34 min 17 sec) 
Heartbeat CPU 0 instructions: 52000000 cycles: 93024800 heartbeat IPC: 0.595869 cumulative IPC: 0.483137 (Simulation time: 0 hr 34 min 55 sec) 
Heartbeat CPU 0 instructions: 53000003 cycles: 94760192 heartbeat IPC: 0.57624 cumulative IPC: 0.484959 (Simulation time: 0 hr 35 min 32 sec) 
Heartbeat CPU 0 instructions: 54000001 cycles: 96496253 heartbeat IPC: 0.576015 cumulative IPC: 0.486708 (Simulation time: 0 hr 36 min 10 sec) 
Heartbeat CPU 0 instructions: 55000000 cycles: 98229942 heartbeat IPC: 0.576804 cumulative IPC: 0.488403 (Simulation time: 0 hr 36 min 46 sec) 
Heartbeat CPU 0 instructions: 56000000 cycles: 99886146 heartbeat IPC: 0.60379 cumulative IPC: 0.49044 (Simulation time: 0 hr 37 min 24 sec) 
Heartbeat CPU 0 instructions: 57000000 cycles: 101596424 heartbeat IPC: 0.5847 cumulative IPC: 0.492128 (Simulation time: 0 hr 38 min 6 sec) 
Heartbeat CPU 0 instructions: 58000002 cycles: 103333931 heartbeat IPC: 0.575538 cumulative IPC: 0.493619 (Simulation time: 0 hr 38 min 45 sec) 
Heartbeat CPU 0 instructions: 59000001 cycles: 105072104 heartbeat IPC: 0.575316 cumulative IPC: 0.495054 (Simulation time: 0 hr 39 min 26 sec) 
Heartbeat CPU 0 instructions: 60000000 cycles: 108429024 heartbeat IPC: 0.297892 cumulative IPC: 0.488586 (Simulation time: 0 hr 40 min 13 sec) 
Heartbeat CPU 0 instructions: 61000001 cycles: 113390687 heartbeat IPC: 0.201546 cumulative IPC: 0.475313 (Simulation time: 0 hr 41 min 1 sec) 
Heartbeat CPU 0 instructions: 62000000 cycles: 115125189 heartbeat IPC: 0.576534 cumulative IPC: 0.476923 (Simulation time: 0 hr 41 min 40 sec) 
Heartbeat CPU 0 instructions: 63000000 cycles: 116863470 heartbeat IPC: 0.575281 cumulative IPC: 0.478466 (Simulation time: 0 hr 42 min 19 sec) 
Heartbeat CPU 0 instructions: 64000000 cycles: 118595457 heartbeat IPC: 0.577372 cumulative IPC: 0.479989 (Simulation time: 0 hr 42 min 58 sec) 
Heartbeat CPU 0 instructions: 65000002 cycles: 120255462 heartbeat IPC: 0.602409 cumulative IPC: 0.481769 (Simulation time: 0 hr 43 min 38 sec) 
Heartbeat CPU 0 instructions: 66000003 cycles: 121960285 heartbeat IPC: 0.586572 cumulative IPC: 0.483311 (Simulation time: 0 hr 44 min 20 sec) 
Heartbeat CPU 0 instructions: 67000001 cycles: 123697893 heartbeat IPC: 0.575503 cumulative IPC: 0.484673 (Simulation time: 0 hr 44 min 58 sec) 
Heartbeat CPU 0 instructions: 68000000 cycles: 125436508 heartbeat IPC: 0.57517 cumulative IPC: 0.485992 (Simulation time: 0 hr 45 min 36 sec) 
Heartbeat CPU 0 instructions: 69000003 cycles: 127153187 heartbeat IPC: 0.582522 cumulative IPC: 0.487361 (Simulation time: 0 hr 46 min 13 sec) 
Heartbeat CPU 0 instructions: 70000000 cycles: 128805955 heartbeat IPC: 0.605044 cumulative IPC: 0.488946 (Simulation time: 0 hr 46 min 51 sec) 
Heartbeat CPU 0 instructions: 71000002 cycles: 130535103 heartbeat IPC: 0.578321 cumulative IPC: 0.490187 (Simulation time: 0 hr 47 min 33 sec) 
Heartbeat CPU 0 instructions: 72000000 cycles: 132274611 heartbeat IPC: 0.574874 cumulative IPC: 0.491355 (Simulation time: 0 hr 48 min 14 sec) 
Heartbeat CPU 0 instructions: 73000001 cycles: 134741665 heartbeat IPC: 0.405342 cumulative IPC: 0.489705 (Simulation time: 0 hr 48 min 53 sec) 
Heartbeat CPU 0 instructions: 74000002 cycles: 140669133 heartbeat IPC: 0.168706 cumulative IPC: 0.475567 (Simulation time: 0 hr 49 min 38 sec) 
Heartbeat CPU 0 instructions: 75000002 cycles: 142367635 heartbeat IPC: 0.588754 cumulative IPC: 0.476978 (Simulation time: 0 hr 50 min 18 sec) 
Heartbeat CPU 0 instructions: 76000000 cycles: 144106839 heartbeat IPC: 0.574975 cumulative IPC: 0.478213 (Simulation time: 0 hr 50 min 55 sec) 
Heartbeat CPU 0 instructions: 77000001 cycles: 145845726 heartbeat IPC: 0.575081 cumulative IPC: 0.479418 (Simulation time: 0 hr 51 min 31 sec) 
Heartbeat CPU 0 instructions: 78000000 cycles: 147568362 heartbeat IPC: 0.580505 cumulative IPC: 0.480649 (Simulation time: 0 hr 52 min 5 sec) 
Heartbeat CPU 0 instructions: 79000003 cycles: 149215525 heartbeat IPC: 0.607106 cumulative IPC: 0.482104 (Simulation time: 0 hr 52 min 40 sec) 
Heartbeat CPU 0 instructions: 80000000 cycles: 150946869 heartbeat IPC: 0.577584 cumulative IPC: 0.483245 (Simulation time: 0 hr 53 min 16 sec) 
Heartbeat CPU 0 instructions: 81000002 cycles: 152686254 heartbeat IPC: 0.574917 cumulative IPC: 0.484333 (Simulation time: 0 hr 53 min 52 sec) 
Heartbeat CPU 0 instructions: 82000000 cycles: 154425545 heartbeat IPC: 0.574946 cumulative IPC: 0.485396 (Simulation time: 0 hr 54 min 29 sec) 
Heartbeat CPU 0 instructions: 83000000 cycles: 156112059 heartbeat IPC: 0.592939 cumulative IPC: 0.486605 (Simulation time: 0 hr 55 min 5 sec) 
Heartbeat CPU 0 instructions: 84000000 cycles: 157787536 heartbeat IPC: 0.596845 cumulative IPC: 0.487822 (Simulation time: 0 hr 55 min 38 sec) 
Heartbeat CPU 0 instructions: 85000003 cycles: 159549726 heartbeat IPC: 0.567477 cumulative IPC: 0.488737 (Simulation time: 0 hr 56 min 9 sec) 
Heartbeat CPU 0 instructions: 86000000 cycles: 161289666 heartbeat IPC: 0.574731 cumulative IPC: 0.489701 (Simulation time: 0 hr 56 min 42 sec) 
Heartbeat CPU 0 instructions: 87000001 cycles: 168039554 heartbeat IPC: 0.148151 cumulative IPC: 0.475465 (Simulation time: 0 hr 57 min 16 sec) 
Heartbeat CPU 0 instructions: 88000000 cycles: 169684492 heartbeat IPC: 0.607925 cumulative IPC: 0.476797 (Simulation time: 0 hr 57 min 44 sec) 
Heartbeat CPU 0 instructions: 89000002 cycles: 171411580 heartbeat IPC: 0.57901 cumulative IPC: 0.477865 (Simulation time: 0 hr 58 min 11 sec) 
Heartbeat CPU 0 instructions: 90000001 cycles: 173177096 heartbeat IPC: 0.566406 cumulative IPC: 0.478801 (Simulation time: 0 hr 58 min 39 sec) 
Heartbeat CPU 0 instructions: 91000002 cycles: 174914945 heartbeat IPC: 0.575425 cumulative IPC: 0.479795 (Simulation time: 0 hr 59 min 7 sec) 
Heartbeat CPU 0 instructions: 92000000 cycles: 176609653 heartbeat IPC: 0.590071 cumulative IPC: 0.480891 (Simulation time: 0 hr 59 min 37 sec) 
Heartbeat CPU 0 instructions: 93000002 cycles: 178281008 heartbeat IPC: 0.598318 cumulative IPC: 0.482031 (Simulation time: 1 hr 0 min 2 sec) 
Heartbeat CPU 0 instructions: 94000002 cycles: 180016205 heartbeat IPC: 0.576303 cumulative IPC: 0.482972 (Simulation time: 1 hr 0 min 29 sec) 
Heartbeat CPU 0 instructions: 95000003 cycles: 181754978 heartbeat IPC: 0.575119 cumulative IPC: 0.483884 (Simulation time: 1 hr 0 min 55 sec) 
Heartbeat CPU 0 instructions: 96000000 cycles: 183488982 heartbeat IPC: 0.576698 cumulative IPC: 0.484791 (Simulation time: 1 hr 1 min 19 sec) 
Heartbeat CPU 0 instructions: 97000003 cycles: 185150559 heartbeat IPC: 0.60184 cumulative IPC: 0.485877 (Simulation time: 1 hr 1 min 43 sec) 
Heartbeat CPU 0 instructions: 98000003 cycles: 186851566 heartbeat IPC: 0.587887 cumulative IPC: 0.486837 (Simulation time: 1 hr 2 min 6 sec) 
Heartbeat CPU 0 instructions: 99000000 cycles: 188589811 heartbeat IPC: 0.575291 cumulative IPC: 0.48768 (Simulation time: 1 hr 2 min 29 sec) 
Heartbeat CPU 0 instructions: 100000000 cycles: 195357112 heartbeat IPC: 0.147769 cumulative IPC: 0.475526 (Simulation time: 1 hr 2 min 57 sec) 
Heartbeat CPU 0 instructions: 101000000 cycles: 197054835 heartbeat IPC: 0.589024 cumulative IPC: 0.476535 (Simulation time: 1 hr 3 min 19 sec) 
Heartbeat CPU 0 instructions: 102000003 cycles: 198722556 heartbeat IPC: 0.599622 cumulative IPC: 0.4776 (Simulation time: 1 hr 3 min 40 sec) 
Heartbeat CPU 0 instructions: 103000000 cycles: 200455960 heartbeat IPC: 0.576898 cumulative IPC: 0.478486 (Simulation time: 1 hr 4 min 0 sec) 
Heartbeat CPU 0 instructions: 104000000 cycles: 202196054 heartbeat IPC: 0.574682 cumulative IPC: 0.47934 (Simulation time: 1 hr 4 min 17 sec) 
Heartbeat CPU 0 instructions: 105000001 cycles: 203931289 heartbeat IPC: 0.576291 cumulative IPC: 0.48019 (Simulation time: 1 hr 4 min 33 sec) 
Heartbeat CPU 0 instructions: 106000000 cycles: 205598862 heartbeat IPC: 0.599673 cumulative IPC: 0.481189 (Simulation time: 1 hr 4 min 48 sec) 
Heartbeat CPU 0 instructions: 107000001 cycles: 207295124 heartbeat IPC: 0.589532 cumulative IPC: 0.482102 (Simulation time: 1 hr 5 min 2 sec) 
Heartbeat CPU 0 instructions: 108000000 cycles: 209034214 heartbeat IPC: 0.575013 cumulative IPC: 0.482898 (Simulation time: 1 hr 5 min 15 sec) 
Heartbeat CPU 0 instructions: 109000002 cycles: 210773399 heartbeat IPC: 0.574983 cumulative IPC: 0.483681 (Simulation time: 1 hr 5 min 30 sec) 
Heartbeat CPU 0 instructions: 110000001 cycles: 212499210 heartbeat IPC: 0.579437 cumulative IPC: 0.484481 (Simulation time: 1 hr 5 min 43 sec) 
Finished CPU 0 instructions: 100000003 cycles: 206406299 cummulative IPC: 0.484481 (Simulation time: 1 hr 5 min 43 sec) 

ChampSim completed all CPUs

Region of Interest Statistics

CPU 0 cummulative IPC: 0.484481 instructions: 100000003 cycles: 206406299
LLC TOTAL     ACCESS:    1107672  HIT:     334929  MISS:     772743
LLC LOAD      ACCESS:      23254  HIT:       3642  MISS:      19612
LLC RFO       ACCESS:     245174  HIT:      66612  MISS:     178562
LLC PREFETCH  ACCESS:     593733  HIT:     161449  MISS:     432284
LLC WRITEBACK ACCESS:     245511  HIT:     103226  MISS:     142285
Insertion Distribution: 
	LOAD 0 0 3992 17137 
	RFO 20107 0 21981 167195 
	PREF 0 30695 67159 399886 
	WRITEBACK 0 0 0 151551 
Total Prefetch Downgrades: 36238
