
*** ChampSim Multicore Out-of-Order Simulator ***

Warmup Instructions: 10000000
Simulation Instructions: 100000000
Configuration: 2
Number of CPUs: 1
LLC sets: 2048
LLC ways: 16
Off-chip DRAM Channels: 1 Width: 64-bit Data Rate: 1600 MT/s

CPU 0 runs /datasets/cs240c-wi22-a00-public/data/Assignment2-gz/GemsFDTD_712B.trace.gz
CPU 0 L1D next line prefetcher
CPU 0 L2C IP-based stride prefetcher
Initialize SRRIP state
Heartbeat CPU 0 instructions: 1000003 cycles: 634340 heartbeat IPC: 1.57645 cumulative IPC: 1.57645 (Simulation time: 0 hr 0 min 55 sec) 
Heartbeat CPU 0 instructions: 2000000 cycles: 1268251 heartbeat IPC: 1.5775 cumulative IPC: 1.57697 (Simulation time: 0 hr 2 min 1 sec) 
Heartbeat CPU 0 instructions: 3000000 cycles: 1902230 heartbeat IPC: 1.57734 cumulative IPC: 1.5771 (Simulation time: 0 hr 3 min 9 sec) 
Heartbeat CPU 0 instructions: 4000000 cycles: 2535944 heartbeat IPC: 1.578 cumulative IPC: 1.57732 (Simulation time: 0 hr 4 min 13 sec) 
Heartbeat CPU 0 instructions: 5000003 cycles: 3170098 heartbeat IPC: 1.57691 cumulative IPC: 1.57724 (Simulation time: 0 hr 5 min 19 sec) 
Heartbeat CPU 0 instructions: 6000002 cycles: 3803987 heartbeat IPC: 1.57756 cumulative IPC: 1.57729 (Simulation time: 0 hr 6 min 23 sec) 
Heartbeat CPU 0 instructions: 7000001 cycles: 4438127 heartbeat IPC: 1.57694 cumulative IPC: 1.57724 (Simulation time: 0 hr 7 min 25 sec) 
Heartbeat CPU 0 instructions: 8000000 cycles: 5071955 heartbeat IPC: 1.57771 cumulative IPC: 1.5773 (Simulation time: 0 hr 8 min 19 sec) 
Heartbeat CPU 0 instructions: 9000001 cycles: 5706062 heartbeat IPC: 1.57702 cumulative IPC: 1.57727 (Simulation time: 0 hr 9 min 21 sec) 
Heartbeat CPU 0 instructions: 10000002 cycles: 6339828 heartbeat IPC: 1.57787 cumulative IPC: 1.57733 (Simulation time: 0 hr 10 min 13 sec) 

Warmup complete CPU 0 instructions: 10000002 cycles: 6339828 (Simulation time: 0 hr 10 min 13 sec) 

Heartbeat CPU 0 instructions: 11000001 cycles: 7959933 heartbeat IPC: 0.617243 cumulative IPC: 0.617243 (Simulation time: 0 hr 10 min 57 sec) 
Heartbeat CPU 0 instructions: 12000000 cycles: 9585842 heartbeat IPC: 0.61504 cumulative IPC: 0.61614 (Simulation time: 0 hr 11 min 40 sec) 
Heartbeat CPU 0 instructions: 13000000 cycles: 11208641 heartbeat IPC: 0.616219 cumulative IPC: 0.616166 (Simulation time: 0 hr 12 min 22 sec) 
Heartbeat CPU 0 instructions: 14000001 cycles: 12814597 heartbeat IPC: 0.622683 cumulative IPC: 0.617782 (Simulation time: 0 hr 13 min 5 sec) 
Heartbeat CPU 0 instructions: 15000001 cycles: 14408571 heartbeat IPC: 0.627363 cumulative IPC: 0.619675 (Simulation time: 0 hr 13 min 51 sec) 
Heartbeat CPU 0 instructions: 16000000 cycles: 16035847 heartbeat IPC: 0.614523 cumulative IPC: 0.61881 (Simulation time: 0 hr 14 min 33 sec) 
Heartbeat CPU 0 instructions: 17000001 cycles: 17650186 heartbeat IPC: 0.619449 cumulative IPC: 0.618902 (Simulation time: 0 hr 15 min 19 sec) 
Heartbeat CPU 0 instructions: 18000003 cycles: 19286498 heartbeat IPC: 0.611132 cumulative IPC: 0.61792 (Simulation time: 0 hr 16 min 2 sec) 
Heartbeat CPU 0 instructions: 19000003 cycles: 20892818 heartbeat IPC: 0.622541 cumulative IPC: 0.61843 (Simulation time: 0 hr 16 min 47 sec) 
Heartbeat CPU 0 instructions: 20000000 cycles: 22493805 heartbeat IPC: 0.624613 cumulative IPC: 0.619042 (Simulation time: 0 hr 17 min 25 sec) 
Heartbeat CPU 0 instructions: 21000002 cycles: 24110333 heartbeat IPC: 0.618611 cumulative IPC: 0.619003 (Simulation time: 0 hr 18 min 8 sec) 
Heartbeat CPU 0 instructions: 22000001 cycles: 25737157 heartbeat IPC: 0.614694 cumulative IPC: 0.618642 (Simulation time: 0 hr 18 min 51 sec) 
Heartbeat CPU 0 instructions: 23000002 cycles: 27347305 heartbeat IPC: 0.621062 cumulative IPC: 0.618827 (Simulation time: 0 hr 19 min 33 sec) 
Heartbeat CPU 0 instructions: 24000000 cycles: 28992615 heartbeat IPC: 0.607787 cumulative IPC: 0.618025 (Simulation time: 0 hr 20 min 17 sec) 
Heartbeat CPU 0 instructions: 25000000 cycles: 30614419 heartbeat IPC: 0.616597 cumulative IPC: 0.61793 (Simulation time: 0 hr 21 min 3 sec) 
Heartbeat CPU 0 instructions: 26000002 cycles: 32228609 heartbeat IPC: 0.619507 cumulative IPC: 0.618028 (Simulation time: 0 hr 21 min 44 sec) 
Heartbeat CPU 0 instructions: 27000002 cycles: 33860075 heartbeat IPC: 0.612946 cumulative IPC: 0.617727 (Simulation time: 0 hr 22 min 29 sec) 
Heartbeat CPU 0 instructions: 28000000 cycles: 35470711 heartbeat IPC: 0.620871 cumulative IPC: 0.617901 (Simulation time: 0 hr 23 min 13 sec) 
Heartbeat CPU 0 instructions: 29000002 cycles: 37080024 heartbeat IPC: 0.621384 cumulative IPC: 0.618083 (Simulation time: 0 hr 23 min 59 sec) 
Heartbeat CPU 0 instructions: 30000003 cycles: 38684253 heartbeat IPC: 0.623353 cumulative IPC: 0.618345 (Simulation time: 0 hr 24 min 41 sec) 
Heartbeat CPU 0 instructions: 31000001 cycles: 40301205 heartbeat IPC: 0.618446 cumulative IPC: 0.618349 (Simulation time: 0 hr 25 min 24 sec) 
Heartbeat CPU 0 instructions: 32000000 cycles: 41927611 heartbeat IPC: 0.614852 cumulative IPC: 0.61819 (Simulation time: 0 hr 26 min 7 sec) 
Heartbeat CPU 0 instructions: 33000003 cycles: 43542237 heartbeat IPC: 0.61934 cumulative IPC: 0.61824 (Simulation time: 0 hr 26 min 53 sec) 
Heartbeat CPU 0 instructions: 34000003 cycles: 45126996 heartbeat IPC: 0.631011 cumulative IPC: 0.618761 (Simulation time: 0 hr 27 min 36 sec) 
Heartbeat CPU 0 instructions: 35000000 cycles: 46740448 heartbeat IPC: 0.619787 cumulative IPC: 0.618802 (Simulation time: 0 hr 28 min 19 sec) 
Heartbeat CPU 0 instructions: 36000000 cycles: 48358132 heartbeat IPC: 0.618168 cumulative IPC: 0.618778 (Simulation time: 0 hr 28 min 59 sec) 
Heartbeat CPU 0 instructions: 37000001 cycles: 49953708 heartbeat IPC: 0.626734 cumulative IPC: 0.619069 (Simulation time: 0 hr 29 min 41 sec) 
Heartbeat CPU 0 instructions: 38000003 cycles: 51553013 heartbeat IPC: 0.625273 cumulative IPC: 0.619288 (Simulation time: 0 hr 30 min 22 sec) 
Heartbeat CPU 0 instructions: 39000000 cycles: 53186433 heartbeat IPC: 0.612211 cumulative IPC: 0.619042 (Simulation time: 0 hr 31 min 0 sec) 
Heartbeat CPU 0 instructions: 40000000 cycles: 54764721 heartbeat IPC: 0.633598 cumulative IPC: 0.619516 (Simulation time: 0 hr 31 min 46 sec) 
Heartbeat CPU 0 instructions: 41000003 cycles: 56369062 heartbeat IPC: 0.623311 cumulative IPC: 0.619638 (Simulation time: 0 hr 32 min 35 sec) 
Heartbeat CPU 0 instructions: 42000000 cycles: 57991643 heartbeat IPC: 0.6163 cumulative IPC: 0.619533 (Simulation time: 0 hr 33 min 18 sec) 
Heartbeat CPU 0 instructions: 43000001 cycles: 59606902 heartbeat IPC: 0.619096 cumulative IPC: 0.61952 (Simulation time: 0 hr 34 min 2 sec) 
Heartbeat CPU 0 instructions: 44000000 cycles: 61210916 heartbeat IPC: 0.623435 cumulative IPC: 0.619634 (Simulation time: 0 hr 34 min 43 sec) 
Heartbeat CPU 0 instructions: 45000003 cycles: 62813303 heartbeat IPC: 0.624071 cumulative IPC: 0.61976 (Simulation time: 0 hr 35 min 26 sec) 
Heartbeat CPU 0 instructions: 46000002 cycles: 64401103 heartbeat IPC: 0.629802 cumulative IPC: 0.620035 (Simulation time: 0 hr 36 min 5 sec) 
Heartbeat CPU 0 instructions: 47000001 cycles: 66019807 heartbeat IPC: 0.617778 cumulative IPC: 0.619973 (Simulation time: 0 hr 36 min 50 sec) 
Heartbeat CPU 0 instructions: 48000000 cycles: 67634062 heartbeat IPC: 0.61948 cumulative IPC: 0.61996 (Simulation time: 0 hr 37 min 35 sec) 
Heartbeat CPU 0 instructions: 49000000 cycles: 69233618 heartbeat IPC: 0.625174 cumulative IPC: 0.620093 (Simulation time: 0 hr 38 min 17 sec) 
Heartbeat CPU 0 instructions: 50000001 cycles: 70855583 heartbeat IPC: 0.616537 cumulative IPC: 0.620004 (Simulation time: 0 hr 39 min 0 sec) 
Heartbeat CPU 0 instructions: 51000002 cycles: 72480286 heartbeat IPC: 0.615498 cumulative IPC: 0.619893 (Simulation time: 0 hr 39 min 43 sec) 
Heartbeat CPU 0 instructions: 52000000 cycles: 74093312 heartbeat IPC: 0.619952 cumulative IPC: 0.619894 (Simulation time: 0 hr 40 min 26 sec) 
Heartbeat CPU 0 instructions: 53000000 cycles: 75735838 heartbeat IPC: 0.608818 cumulative IPC: 0.619632 (Simulation time: 0 hr 41 min 12 sec) 
Heartbeat CPU 0 instructions: 54000000 cycles: 77327972 heartbeat IPC: 0.628088 cumulative IPC: 0.619822 (Simulation time: 0 hr 42 min 1 sec) 
Heartbeat CPU 0 instructions: 55000003 cycles: 78918217 heartbeat IPC: 0.628836 cumulative IPC: 0.620019 (Simulation time: 0 hr 42 min 39 sec) 
Heartbeat CPU 0 instructions: 56000000 cycles: 80533995 heartbeat IPC: 0.618895 cumulative IPC: 0.619995 (Simulation time: 0 hr 43 min 18 sec) 
Heartbeat CPU 0 instructions: 57000000 cycles: 82186320 heartbeat IPC: 0.605208 cumulative IPC: 0.619673 (Simulation time: 0 hr 43 min 59 sec) 
Heartbeat CPU 0 instructions: 58000001 cycles: 83802021 heartbeat IPC: 0.618927 cumulative IPC: 0.619657 (Simulation time: 0 hr 44 min 45 sec) 
Heartbeat CPU 0 instructions: 59000001 cycles: 85420427 heartbeat IPC: 0.617892 cumulative IPC: 0.619621 (Simulation time: 0 hr 45 min 29 sec) 
Heartbeat CPU 0 instructions: 60000000 cycles: 87051610 heartbeat IPC: 0.613051 cumulative IPC: 0.619488 (Simulation time: 0 hr 46 min 8 sec) 
Heartbeat CPU 0 instructions: 61000001 cycles: 88639269 heartbeat IPC: 0.629859 cumulative IPC: 0.619688 (Simulation time: 0 hr 46 min 47 sec) 
Heartbeat CPU 0 instructions: 62000000 cycles: 90234700 heartbeat IPC: 0.626789 cumulative IPC: 0.619823 (Simulation time: 0 hr 47 min 26 sec) 
Heartbeat CPU 0 instructions: 63000003 cycles: 91858379 heartbeat IPC: 0.615887 cumulative IPC: 0.619749 (Simulation time: 0 hr 48 min 7 sec) 
Heartbeat CPU 0 instructions: 64000000 cycles: 93481268 heartbeat IPC: 0.616183 cumulative IPC: 0.619682 (Simulation time: 0 hr 48 min 51 sec) 
Heartbeat CPU 0 instructions: 65000003 cycles: 95112410 heartbeat IPC: 0.613069 cumulative IPC: 0.619561 (Simulation time: 0 hr 49 min 30 sec) 
Heartbeat CPU 0 instructions: 66000000 cycles: 96702503 heartbeat IPC: 0.628892 cumulative IPC: 0.619725 (Simulation time: 0 hr 50 min 9 sec) 
Heartbeat CPU 0 instructions: 67000000 cycles: 98302645 heartbeat IPC: 0.624945 cumulative IPC: 0.619816 (Simulation time: 0 hr 50 min 46 sec) 
Heartbeat CPU 0 instructions: 68000000 cycles: 99904585 heartbeat IPC: 0.624243 cumulative IPC: 0.619892 (Simulation time: 0 hr 51 min 21 sec) 
Heartbeat CPU 0 instructions: 69000003 cycles: 101487864 heartbeat IPC: 0.631603 cumulative IPC: 0.620086 (Simulation time: 0 hr 51 min 59 sec) 
Heartbeat CPU 0 instructions: 70000002 cycles: 103122197 heartbeat IPC: 0.61187 cumulative IPC: 0.619948 (Simulation time: 0 hr 52 min 36 sec) 
Heartbeat CPU 0 instructions: 71000002 cycles: 104770160 heartbeat IPC: 0.60681 cumulative IPC: 0.619728 (Simulation time: 0 hr 53 min 13 sec) 
Heartbeat CPU 0 instructions: 72000000 cycles: 106461274 heartbeat IPC: 0.591325 cumulative IPC: 0.619248 (Simulation time: 0 hr 53 min 59 sec) 
Heartbeat CPU 0 instructions: 73000000 cycles: 108150797 heartbeat IPC: 0.591883 cumulative IPC: 0.618794 (Simulation time: 0 hr 54 min 42 sec) 
Heartbeat CPU 0 instructions: 74000001 cycles: 109870201 heartbeat IPC: 0.581597 cumulative IPC: 0.618176 (Simulation time: 0 hr 55 min 21 sec) 
Heartbeat CPU 0 instructions: 75000003 cycles: 111572768 heartbeat IPC: 0.58735 cumulative IPC: 0.617677 (Simulation time: 0 hr 55 min 57 sec) 
Heartbeat CPU 0 instructions: 76000000 cycles: 113269690 heartbeat IPC: 0.589301 cumulative IPC: 0.617227 (Simulation time: 0 hr 56 min 34 sec) 
Heartbeat CPU 0 instructions: 77000000 cycles: 114979683 heartbeat IPC: 0.584798 cumulative IPC: 0.616717 (Simulation time: 0 hr 57 min 8 sec) 
Heartbeat CPU 0 instructions: 78000001 cycles: 116677965 heartbeat IPC: 0.588831 cumulative IPC: 0.616287 (Simulation time: 0 hr 57 min 39 sec) 
Heartbeat CPU 0 instructions: 79000003 cycles: 118387080 heartbeat IPC: 0.585099 cumulative IPC: 0.615812 (Simulation time: 0 hr 58 min 10 sec) 
Heartbeat CPU 0 instructions: 80000000 cycles: 120117444 heartbeat IPC: 0.577911 cumulative IPC: 0.615235 (Simulation time: 0 hr 58 min 41 sec) 
Heartbeat CPU 0 instructions: 81000001 cycles: 121840053 heartbeat IPC: 0.580515 cumulative IPC: 0.614717 (Simulation time: 0 hr 59 min 14 sec) 
Heartbeat CPU 0 instructions: 82000000 cycles: 123567315 heartbeat IPC: 0.57895 cumulative IPC: 0.61419 (Simulation time: 0 hr 59 min 44 sec) 
Heartbeat CPU 0 instructions: 83000001 cycles: 125270651 heartbeat IPC: 0.587084 cumulative IPC: 0.613802 (Simulation time: 1 hr 0 min 13 sec) 
Heartbeat CPU 0 instructions: 84000000 cycles: 126979483 heartbeat IPC: 0.585194 cumulative IPC: 0.613397 (Simulation time: 1 hr 0 min 43 sec) 
Heartbeat CPU 0 instructions: 85000000 cycles: 128684188 heartbeat IPC: 0.586612 cumulative IPC: 0.613024 (Simulation time: 1 hr 1 min 11 sec) 
Heartbeat CPU 0 instructions: 86000000 cycles: 130380365 heartbeat IPC: 0.589561 cumulative IPC: 0.612703 (Simulation time: 1 hr 1 min 38 sec) 
Heartbeat CPU 0 instructions: 87000001 cycles: 132099429 heartbeat IPC: 0.581712 cumulative IPC: 0.612279 (Simulation time: 1 hr 2 min 5 sec) 
Heartbeat CPU 0 instructions: 88000000 cycles: 133801776 heartbeat IPC: 0.587424 cumulative IPC: 0.611947 (Simulation time: 1 hr 2 min 30 sec) 
Heartbeat CPU 0 instructions: 89000003 cycles: 135507008 heartbeat IPC: 0.586432 cumulative IPC: 0.61161 (Simulation time: 1 hr 2 min 57 sec) 
Heartbeat CPU 0 instructions: 90000000 cycles: 137214046 heartbeat IPC: 0.585808 cumulative IPC: 0.611274 (Simulation time: 1 hr 3 min 22 sec) 
Heartbeat CPU 0 instructions: 91000001 cycles: 138910099 heartbeat IPC: 0.589605 cumulative IPC: 0.610997 (Simulation time: 1 hr 3 min 46 sec) 
Heartbeat CPU 0 instructions: 92000000 cycles: 140610433 heartbeat IPC: 0.588119 cumulative IPC: 0.610707 (Simulation time: 1 hr 4 min 7 sec) 
Heartbeat CPU 0 instructions: 93000003 cycles: 142309704 heartbeat IPC: 0.588489 cumulative IPC: 0.610429 (Simulation time: 1 hr 4 min 25 sec) 
Heartbeat CPU 0 instructions: 94000002 cycles: 144010235 heartbeat IPC: 0.588051 cumulative IPC: 0.610153 (Simulation time: 1 hr 4 min 42 sec) 
Heartbeat CPU 0 instructions: 95000000 cycles: 145719802 heartbeat IPC: 0.584942 cumulative IPC: 0.609844 (Simulation time: 1 hr 4 min 58 sec) 
Heartbeat CPU 0 instructions: 96000000 cycles: 147416600 heartbeat IPC: 0.589345 cumulative IPC: 0.609597 (Simulation time: 1 hr 5 min 15 sec) 
Heartbeat CPU 0 instructions: 97000003 cycles: 149116053 heartbeat IPC: 0.588426 cumulative IPC: 0.609345 (Simulation time: 1 hr 5 min 30 sec) 
Heartbeat CPU 0 instructions: 98000000 cycles: 150821109 heartbeat IPC: 0.586489 cumulative IPC: 0.609075 (Simulation time: 1 hr 5 min 45 sec) 
Heartbeat CPU 0 instructions: 99000001 cycles: 152530851 heartbeat IPC: 0.584884 cumulative IPC: 0.608792 (Simulation time: 1 hr 5 min 59 sec) 
Heartbeat CPU 0 instructions: 100000000 cycles: 154245842 heartbeat IPC: 0.583093 cumulative IPC: 0.608495 (Simulation time: 1 hr 6 min 13 sec) 
Heartbeat CPU 0 instructions: 101000001 cycles: 155954968 heartbeat IPC: 0.585095 cumulative IPC: 0.608227 (Simulation time: 1 hr 6 min 27 sec) 
Heartbeat CPU 0 instructions: 102000002 cycles: 157664212 heartbeat IPC: 0.585055 cumulative IPC: 0.607965 (Simulation time: 1 hr 6 min 38 sec) 
Heartbeat CPU 0 instructions: 103000000 cycles: 159363880 heartbeat IPC: 0.588349 cumulative IPC: 0.607748 (Simulation time: 1 hr 6 min 46 sec) 
Heartbeat CPU 0 instructions: 104000000 cycles: 161072211 heartbeat IPC: 0.585367 cumulative IPC: 0.6075 (Simulation time: 1 hr 6 min 55 sec) 
Heartbeat CPU 0 instructions: 105000000 cycles: 162775329 heartbeat IPC: 0.587158 cumulative IPC: 0.607279 (Simulation time: 1 hr 7 min 3 sec) 
Heartbeat CPU 0 instructions: 106000002 cycles: 164462067 heartbeat IPC: 0.592861 cumulative IPC: 0.607125 (Simulation time: 1 hr 7 min 12 sec) 
Heartbeat CPU 0 instructions: 107000000 cycles: 166172688 heartbeat IPC: 0.584582 cumulative IPC: 0.606884 (Simulation time: 1 hr 7 min 19 sec) 
Heartbeat CPU 0 instructions: 108000000 cycles: 167874256 heartbeat IPC: 0.587693 cumulative IPC: 0.606682 (Simulation time: 1 hr 7 min 25 sec) 
Heartbeat CPU 0 instructions: 109000003 cycles: 169585165 heartbeat IPC: 0.584486 cumulative IPC: 0.606449 (Simulation time: 1 hr 7 min 32 sec) 
Heartbeat CPU 0 instructions: 110000001 cycles: 171287864 heartbeat IPC: 0.587302 cumulative IPC: 0.606252 (Simulation time: 1 hr 7 min 37 sec) 
Finished CPU 0 instructions: 100000003 cycles: 164948037 cummulative IPC: 0.606252 (Simulation time: 1 hr 7 min 37 sec) 

ChampSim completed all CPUs

Region of Interest Statistics

CPU 0 cummulative IPC: 0.606252 instructions: 100000003 cycles: 164948037
LLC TOTAL     ACCESS:    5145133  HIT:     270620  MISS:    4874513
LLC LOAD      ACCESS:     521080  HIT:     124322  MISS:     396758
LLC RFO       ACCESS:         18  HIT:          0  MISS:         18
LLC PREFETCH  ACCESS:    3246736  HIT:      61009  MISS:    3185727
LLC WRITEBACK ACCESS:    1377299  HIT:      85289  MISS:    1292010
Insertion Distribution: 
	LOAD 132654 0 15924 264515 
	RFO 0 0 18 0 
	PREF 0 14346 66538 3473563 
	WRITEBACK 0 0 0 1414793 
Total Prefetch Downgrades: 9371
