
*** ChampSim Multicore Out-of-Order Simulator ***

Warmup Instructions: 10000000
Simulation Instructions: 100000000
Configuration: 2
Number of CPUs: 1
LLC sets: 2048
LLC ways: 16
Off-chip DRAM Channels: 1 Width: 64-bit Data Rate: 1600 MT/s

CPU 0 runs /datasets/cs240c-wi22-a00-public/data/Assignment2-gz/leslie3d_1186B.trace.gz
CPU 0 L1D next line prefetcher
CPU 0 L2C IP-based stride prefetcher
Initialize SRRIP state
Heartbeat CPU 0 instructions: 1000002 cycles: 564509 heartbeat IPC: 1.77145 cumulative IPC: 1.77145 (Simulation time: 0 hr 0 min 33 sec) 
Heartbeat CPU 0 instructions: 2000000 cycles: 1215814 heartbeat IPC: 1.53538 cumulative IPC: 1.64499 (Simulation time: 0 hr 1 min 14 sec) 
Heartbeat CPU 0 instructions: 3000000 cycles: 1867530 heartbeat IPC: 1.53441 cumulative IPC: 1.6064 (Simulation time: 0 hr 1 min 53 sec) 
Heartbeat CPU 0 instructions: 4000000 cycles: 2473058 heartbeat IPC: 1.65145 cumulative IPC: 1.61743 (Simulation time: 0 hr 2 min 25 sec) 
Heartbeat CPU 0 instructions: 5000000 cycles: 3083369 heartbeat IPC: 1.63851 cumulative IPC: 1.6216 (Simulation time: 0 hr 3 min 3 sec) 
Heartbeat CPU 0 instructions: 6000000 cycles: 3735078 heartbeat IPC: 1.53443 cumulative IPC: 1.60639 (Simulation time: 0 hr 3 min 40 sec) 
Heartbeat CPU 0 instructions: 7000001 cycles: 4386320 heartbeat IPC: 1.53553 cumulative IPC: 1.59587 (Simulation time: 0 hr 4 min 17 sec) 
Heartbeat CPU 0 instructions: 8000000 cycles: 4950903 heartbeat IPC: 1.77122 cumulative IPC: 1.61587 (Simulation time: 0 hr 4 min 55 sec) 
Heartbeat CPU 0 instructions: 9000003 cycles: 5602206 heartbeat IPC: 1.53539 cumulative IPC: 1.60651 (Simulation time: 0 hr 5 min 33 sec) 
Heartbeat CPU 0 instructions: 10000001 cycles: 6253374 heartbeat IPC: 1.5357 cumulative IPC: 1.59914 (Simulation time: 0 hr 6 min 9 sec) 

Warmup complete CPU 0 instructions: 10000001 cycles: 6253374 (Simulation time: 0 hr 6 min 9 sec) 

Heartbeat CPU 0 instructions: 11000001 cycles: 7721647 heartbeat IPC: 0.681072 cumulative IPC: 0.681072 (Simulation time: 0 hr 6 min 48 sec) 
Heartbeat CPU 0 instructions: 12000000 cycles: 8978334 heartbeat IPC: 0.795742 cumulative IPC: 0.733955 (Simulation time: 0 hr 7 min 25 sec) 
Heartbeat CPU 0 instructions: 13000000 cycles: 10195456 heartbeat IPC: 0.82161 cumulative IPC: 0.761019 (Simulation time: 0 hr 8 min 1 sec) 
Heartbeat CPU 0 instructions: 14000000 cycles: 11445292 heartbeat IPC: 0.800105 cumulative IPC: 0.770428 (Simulation time: 0 hr 8 min 47 sec) 
Heartbeat CPU 0 instructions: 15000002 cycles: 12879294 heartbeat IPC: 0.697351 cumulative IPC: 0.754612 (Simulation time: 0 hr 9 min 27 sec) 
Heartbeat CPU 0 instructions: 16000000 cycles: 14091669 heartbeat IPC: 0.824826 cumulative IPC: 0.765472 (Simulation time: 0 hr 10 min 4 sec) 
Heartbeat CPU 0 instructions: 17000000 cycles: 15297904 heartbeat IPC: 0.829026 cumulative IPC: 0.773948 (Simulation time: 0 hr 10 min 48 sec) 
Heartbeat CPU 0 instructions: 18000001 cycles: 16739033 heartbeat IPC: 0.693901 cumulative IPC: 0.762947 (Simulation time: 0 hr 11 min 27 sec) 
Heartbeat CPU 0 instructions: 19000003 cycles: 17976104 heartbeat IPC: 0.808363 cumulative IPC: 0.767739 (Simulation time: 0 hr 12 min 7 sec) 
Heartbeat CPU 0 instructions: 20000000 cycles: 19205739 heartbeat IPC: 0.813247 cumulative IPC: 0.77206 (Simulation time: 0 hr 12 min 45 sec) 
Heartbeat CPU 0 instructions: 21000003 cycles: 20523074 heartbeat IPC: 0.759111 cumulative IPC: 0.770864 (Simulation time: 0 hr 13 min 20 sec) 
Heartbeat CPU 0 instructions: 22000003 cycles: 21867751 heartbeat IPC: 0.743673 cumulative IPC: 0.768523 (Simulation time: 0 hr 13 min 58 sec) 
Heartbeat CPU 0 instructions: 23000002 cycles: 23065818 heartbeat IPC: 0.834677 cumulative IPC: 0.773237 (Simulation time: 0 hr 14 min 35 sec) 
Heartbeat CPU 0 instructions: 24000000 cycles: 24262696 heartbeat IPC: 0.835505 cumulative IPC: 0.777375 (Simulation time: 0 hr 15 min 11 sec) 
Heartbeat CPU 0 instructions: 25000000 cycles: 25703098 heartbeat IPC: 0.694251 cumulative IPC: 0.771219 (Simulation time: 0 hr 15 min 46 sec) 
Heartbeat CPU 0 instructions: 26000000 cycles: 26919497 heartbeat IPC: 0.822099 cumulative IPC: 0.774214 (Simulation time: 0 hr 16 min 25 sec) 
Heartbeat CPU 0 instructions: 27000000 cycles: 28132672 heartbeat IPC: 0.824283 cumulative IPC: 0.77699 (Simulation time: 0 hr 17 min 1 sec) 
Heartbeat CPU 0 instructions: 28000000 cycles: 29545190 heartbeat IPC: 0.707956 cumulative IPC: 0.772804 (Simulation time: 0 hr 17 min 36 sec) 
Heartbeat CPU 0 instructions: 29000002 cycles: 30778983 heartbeat IPC: 0.81051 cumulative IPC: 0.7747 (Simulation time: 0 hr 18 min 16 sec) 
Heartbeat CPU 0 instructions: 30000002 cycles: 31984251 heartbeat IPC: 0.829691 cumulative IPC: 0.777276 (Simulation time: 0 hr 18 min 56 sec) 
Heartbeat CPU 0 instructions: 31000002 cycles: 33214948 heartbeat IPC: 0.812548 cumulative IPC: 0.778886 (Simulation time: 0 hr 19 min 32 sec) 
Heartbeat CPU 0 instructions: 32000000 cycles: 34615227 heartbeat IPC: 0.714142 cumulative IPC: 0.77569 (Simulation time: 0 hr 20 min 9 sec) 
Heartbeat CPU 0 instructions: 33000000 cycles: 35808925 heartbeat IPC: 0.837733 cumulative IPC: 0.778196 (Simulation time: 0 hr 20 min 48 sec) 
Heartbeat CPU 0 instructions: 34000000 cycles: 37010928 heartbeat IPC: 0.831945 cumulative IPC: 0.780296 (Simulation time: 0 hr 21 min 26 sec) 
Heartbeat CPU 0 instructions: 35000002 cycles: 38435808 heartbeat IPC: 0.701815 cumulative IPC: 0.776821 (Simulation time: 0 hr 22 min 5 sec) 
Heartbeat CPU 0 instructions: 36000000 cycles: 39662821 heartbeat IPC: 0.814986 cumulative IPC: 0.778223 (Simulation time: 0 hr 22 min 49 sec) 
Heartbeat CPU 0 instructions: 37000003 cycles: 40881997 heartbeat IPC: 0.820229 cumulative IPC: 0.779702 (Simulation time: 0 hr 23 min 28 sec) 
Heartbeat CPU 0 instructions: 38000003 cycles: 42217880 heartbeat IPC: 0.748569 cumulative IPC: 0.778545 (Simulation time: 0 hr 24 min 12 sec) 
Heartbeat CPU 0 instructions: 39000001 cycles: 43530949 heartbeat IPC: 0.761573 cumulative IPC: 0.777948 (Simulation time: 0 hr 24 min 52 sec) 
Heartbeat CPU 0 instructions: 40000000 cycles: 44741792 heartbeat IPC: 0.82587 cumulative IPC: 0.779455 (Simulation time: 0 hr 25 min 29 sec) 
Heartbeat CPU 0 instructions: 41000000 cycles: 45935637 heartbeat IPC: 0.83763 cumulative IPC: 0.781205 (Simulation time: 0 hr 26 min 8 sec) 
Heartbeat CPU 0 instructions: 42000000 cycles: 47369939 heartbeat IPC: 0.697203 cumulative IPC: 0.778275 (Simulation time: 0 hr 26 min 45 sec) 
Heartbeat CPU 0 instructions: 43000002 cycles: 48559063 heartbeat IPC: 0.840957 cumulative IPC: 0.780037 (Simulation time: 0 hr 27 min 28 sec) 
Heartbeat CPU 0 instructions: 44000000 cycles: 49762356 heartbeat IPC: 0.831051 cumulative IPC: 0.781448 (Simulation time: 0 hr 28 min 5 sec) 
Heartbeat CPU 0 instructions: 45000001 cycles: 51251054 heartbeat IPC: 0.671729 cumulative IPC: 0.777818 (Simulation time: 0 hr 28 min 38 sec) 
Heartbeat CPU 0 instructions: 46000001 cycles: 52987060 heartbeat IPC: 0.576035 cumulative IPC: 0.770322 (Simulation time: 0 hr 29 min 15 sec) 
Heartbeat CPU 0 instructions: 47000002 cycles: 54754153 heartbeat IPC: 0.565902 cumulative IPC: 0.762874 (Simulation time: 0 hr 29 min 55 sec) 
Heartbeat CPU 0 instructions: 48000000 cycles: 56577809 heartbeat IPC: 0.548348 cumulative IPC: 0.7551 (Simulation time: 0 hr 30 min 39 sec) 
Heartbeat CPU 0 instructions: 49000002 cycles: 58419968 heartbeat IPC: 0.542842 cumulative IPC: 0.747605 (Simulation time: 0 hr 31 min 23 sec) 
Heartbeat CPU 0 instructions: 50000002 cycles: 60341773 heartbeat IPC: 0.520344 cumulative IPC: 0.73953 (Simulation time: 0 hr 32 min 10 sec) 
Heartbeat CPU 0 instructions: 51000002 cycles: 62200847 heartbeat IPC: 0.537902 cumulative IPC: 0.73283 (Simulation time: 0 hr 32 min 57 sec) 
Heartbeat CPU 0 instructions: 52000000 cycles: 63878958 heartbeat IPC: 0.595907 cumulative IPC: 0.728843 (Simulation time: 0 hr 33 min 40 sec) 
Heartbeat CPU 0 instructions: 53000003 cycles: 65609297 heartbeat IPC: 0.577923 cumulative IPC: 0.724443 (Simulation time: 0 hr 34 min 18 sec) 
Heartbeat CPU 0 instructions: 54000003 cycles: 67425664 heartbeat IPC: 0.55055 cumulative IPC: 0.71928 (Simulation time: 0 hr 35 min 1 sec) 
Heartbeat CPU 0 instructions: 55000001 cycles: 69409383 heartbeat IPC: 0.504103 cumulative IPC: 0.712521 (Simulation time: 0 hr 35 min 37 sec) 
Heartbeat CPU 0 instructions: 56000000 cycles: 71754199 heartbeat IPC: 0.426472 cumulative IPC: 0.702281 (Simulation time: 0 hr 36 min 18 sec) 
Heartbeat CPU 0 instructions: 57000003 cycles: 74142342 heartbeat IPC: 0.418737 cumulative IPC: 0.692307 (Simulation time: 0 hr 36 min 59 sec) 
Heartbeat CPU 0 instructions: 58000001 cycles: 76445924 heartbeat IPC: 0.434106 cumulative IPC: 0.683833 (Simulation time: 0 hr 37 min 39 sec) 
Heartbeat CPU 0 instructions: 59000003 cycles: 78712379 heartbeat IPC: 0.441219 cumulative IPC: 0.676244 (Simulation time: 0 hr 38 min 22 sec) 
Heartbeat CPU 0 instructions: 60000000 cycles: 81029483 heartbeat IPC: 0.431572 cumulative IPC: 0.668663 (Simulation time: 0 hr 39 min 7 sec) 
Heartbeat CPU 0 instructions: 61000003 cycles: 83332589 heartbeat IPC: 0.434198 cumulative IPC: 0.661657 (Simulation time: 0 hr 39 min 52 sec) 
Heartbeat CPU 0 instructions: 62000001 cycles: 85651210 heartbeat IPC: 0.43129 cumulative IPC: 0.65493 (Simulation time: 0 hr 40 min 36 sec) 
Heartbeat CPU 0 instructions: 63000000 cycles: 87628762 heartbeat IPC: 0.505675 cumulative IPC: 0.651303 (Simulation time: 0 hr 41 min 18 sec) 
Heartbeat CPU 0 instructions: 64000000 cycles: 88850293 heartbeat IPC: 0.818645 cumulative IPC: 0.653777 (Simulation time: 0 hr 41 min 57 sec) 
Heartbeat CPU 0 instructions: 65000000 cycles: 90102689 heartbeat IPC: 0.798469 cumulative IPC: 0.655939 (Simulation time: 0 hr 42 min 32 sec) 
Heartbeat CPU 0 instructions: 66000002 cycles: 91361272 heartbeat IPC: 0.794546 cumulative IPC: 0.657988 (Simulation time: 0 hr 43 min 8 sec) 
Heartbeat CPU 0 instructions: 67000001 cycles: 92625862 heartbeat IPC: 0.790769 cumulative IPC: 0.659932 (Simulation time: 0 hr 43 min 45 sec) 
Heartbeat CPU 0 instructions: 68000000 cycles: 93951046 heartbeat IPC: 0.754611 cumulative IPC: 0.661363 (Simulation time: 0 hr 44 min 19 sec) 
Heartbeat CPU 0 instructions: 69000000 cycles: 95203676 heartbeat IPC: 0.79832 cumulative IPC: 0.663292 (Simulation time: 0 hr 44 min 53 sec) 
Heartbeat CPU 0 instructions: 70000000 cycles: 96502051 heartbeat IPC: 0.770194 cumulative IPC: 0.66483 (Simulation time: 0 hr 45 min 31 sec) 
Heartbeat CPU 0 instructions: 71000000 cycles: 97762970 heartbeat IPC: 0.793072 cumulative IPC: 0.666597 (Simulation time: 0 hr 46 min 6 sec) 
Heartbeat CPU 0 instructions: 72000000 cycles: 99046677 heartbeat IPC: 0.778994 cumulative IPC: 0.668152 (Simulation time: 0 hr 46 min 42 sec) 
Heartbeat CPU 0 instructions: 73000000 cycles: 100331685 heartbeat IPC: 0.778205 cumulative IPC: 0.669655 (Simulation time: 0 hr 47 min 20 sec) 
Heartbeat CPU 0 instructions: 74000000 cycles: 101588493 heartbeat IPC: 0.795666 cumulative IPC: 0.671316 (Simulation time: 0 hr 47 min 59 sec) 
Heartbeat CPU 0 instructions: 75000003 cycles: 102889159 heartbeat IPC: 0.768839 cumulative IPC: 0.672629 (Simulation time: 0 hr 48 min 35 sec) 
Heartbeat CPU 0 instructions: 76000000 cycles: 104150093 heartbeat IPC: 0.793061 cumulative IPC: 0.67418 (Simulation time: 0 hr 49 min 11 sec) 
Heartbeat CPU 0 instructions: 77000000 cycles: 105451306 heartbeat IPC: 0.768514 cumulative IPC: 0.675417 (Simulation time: 0 hr 49 min 46 sec) 
Heartbeat CPU 0 instructions: 78000001 cycles: 106733709 heartbeat IPC: 0.779787 cumulative IPC: 0.676749 (Simulation time: 0 hr 50 min 20 sec) 
Heartbeat CPU 0 instructions: 79000002 cycles: 108032696 heartbeat IPC: 0.769831 cumulative IPC: 0.677937 (Simulation time: 0 hr 50 min 55 sec) 
Heartbeat CPU 0 instructions: 80000000 cycles: 109330069 heartbeat IPC: 0.770787 cumulative IPC: 0.679106 (Simulation time: 0 hr 51 min 30 sec) 
Heartbeat CPU 0 instructions: 81000000 cycles: 110596637 heartbeat IPC: 0.789535 cumulative IPC: 0.680446 (Simulation time: 0 hr 52 min 5 sec) 
Heartbeat CPU 0 instructions: 82000003 cycles: 111905270 heartbeat IPC: 0.764158 cumulative IPC: 0.681483 (Simulation time: 0 hr 52 min 41 sec) 
Heartbeat CPU 0 instructions: 83000001 cycles: 113188718 heartbeat IPC: 0.77915 cumulative IPC: 0.682656 (Simulation time: 0 hr 53 min 23 sec) 
Heartbeat CPU 0 instructions: 84000000 cycles: 114485057 heartbeat IPC: 0.771402 cumulative IPC: 0.683718 (Simulation time: 0 hr 54 min 1 sec) 
Heartbeat CPU 0 instructions: 85000001 cycles: 115763755 heartbeat IPC: 0.782046 cumulative IPC: 0.684867 (Simulation time: 0 hr 54 min 37 sec) 
Heartbeat CPU 0 instructions: 86000003 cycles: 117060059 heartbeat IPC: 0.771426 cumulative IPC: 0.685879 (Simulation time: 0 hr 55 min 10 sec) 
Heartbeat CPU 0 instructions: 87000001 cycles: 118346606 heartbeat IPC: 0.777273 cumulative IPC: 0.686928 (Simulation time: 0 hr 55 min 43 sec) 
Heartbeat CPU 0 instructions: 88000000 cycles: 119641786 heartbeat IPC: 0.772093 cumulative IPC: 0.687901 (Simulation time: 0 hr 56 min 16 sec) 
Heartbeat CPU 0 instructions: 89000001 cycles: 120948178 heartbeat IPC: 0.765468 cumulative IPC: 0.688784 (Simulation time: 0 hr 56 min 45 sec) 
Heartbeat CPU 0 instructions: 90000002 cycles: 122239429 heartbeat IPC: 0.774444 cumulative IPC: 0.689738 (Simulation time: 0 hr 57 min 14 sec) 
Heartbeat CPU 0 instructions: 91000000 cycles: 123543427 heartbeat IPC: 0.766871 cumulative IPC: 0.690596 (Simulation time: 0 hr 57 min 39 sec) 
Heartbeat CPU 0 instructions: 92000000 cycles: 124819197 heartbeat IPC: 0.78384 cumulative IPC: 0.691599 (Simulation time: 0 hr 58 min 8 sec) 
Heartbeat CPU 0 instructions: 93000002 cycles: 126133222 heartbeat IPC: 0.761022 cumulative IPC: 0.69236 (Simulation time: 0 hr 58 min 36 sec) 
Heartbeat CPU 0 instructions: 94000000 cycles: 127395636 heartbeat IPC: 0.792132 cumulative IPC: 0.6934 (Simulation time: 0 hr 59 min 6 sec) 
Heartbeat CPU 0 instructions: 95000003 cycles: 128658727 heartbeat IPC: 0.791711 cumulative IPC: 0.694414 (Simulation time: 0 hr 59 min 31 sec) 
Heartbeat CPU 0 instructions: 96000000 cycles: 129956806 heartbeat IPC: 0.770367 cumulative IPC: 0.695211 (Simulation time: 0 hr 59 min 57 sec) 
Heartbeat CPU 0 instructions: 97000001 cycles: 131218220 heartbeat IPC: 0.792762 cumulative IPC: 0.696196 (Simulation time: 1 hr 0 min 25 sec) 
Heartbeat CPU 0 instructions: 98000002 cycles: 132527856 heartbeat IPC: 0.763572 cumulative IPC: 0.696895 (Simulation time: 1 hr 0 min 50 sec) 
Heartbeat CPU 0 instructions: 99000000 cycles: 133788971 heartbeat IPC: 0.792948 cumulative IPC: 0.697844 (Simulation time: 1 hr 1 min 16 sec) 
Heartbeat CPU 0 instructions: 100000000 cycles: 135099879 heartbeat IPC: 0.76283 cumulative IPC: 0.698506 (Simulation time: 1 hr 1 min 38 sec) 
Heartbeat CPU 0 instructions: 101000000 cycles: 136368094 heartbeat IPC: 0.78851 cumulative IPC: 0.699383 (Simulation time: 1 hr 2 min 1 sec) 
Heartbeat CPU 0 instructions: 102000001 cycles: 137630422 heartbeat IPC: 0.792188 cumulative IPC: 0.700275 (Simulation time: 1 hr 2 min 23 sec) 
Heartbeat CPU 0 instructions: 103000002 cycles: 138938447 heartbeat IPC: 0.764512 cumulative IPC: 0.700908 (Simulation time: 1 hr 2 min 47 sec) 
Heartbeat CPU 0 instructions: 104000000 cycles: 140198701 heartbeat IPC: 0.793489 cumulative IPC: 0.701779 (Simulation time: 1 hr 3 min 10 sec) 
Heartbeat CPU 0 instructions: 105000001 cycles: 141523989 heartbeat IPC: 0.754554 cumulative IPC: 0.702296 (Simulation time: 1 hr 3 min 32 sec) 
Heartbeat CPU 0 instructions: 106000002 cycles: 142792460 heartbeat IPC: 0.788351 cumulative IPC: 0.703095 (Simulation time: 1 hr 3 min 52 sec) 
Heartbeat CPU 0 instructions: 107000000 cycles: 144091984 heartbeat IPC: 0.769511 cumulative IPC: 0.703722 (Simulation time: 1 hr 4 min 7 sec) 
Heartbeat CPU 0 instructions: 108000000 cycles: 145375852 heartbeat IPC: 0.778896 cumulative IPC: 0.704415 (Simulation time: 1 hr 4 min 23 sec) 
Heartbeat CPU 0 instructions: 109000003 cycles: 146650587 heartbeat IPC: 0.784479 cumulative IPC: 0.705142 (Simulation time: 1 hr 4 min 39 sec) 
Heartbeat CPU 0 instructions: 110000001 cycles: 147963608 heartbeat IPC: 0.761601 cumulative IPC: 0.705665 (Simulation time: 1 hr 4 min 54 sec) 
Finished CPU 0 instructions: 100000000 cycles: 141710234 cummulative IPC: 0.705665 (Simulation time: 1 hr 4 min 54 sec) 

ChampSim completed all CPUs

Region of Interest Statistics

CPU 0 cummulative IPC: 0.705665 instructions: 100000000 cycles: 141710234
LLC TOTAL     ACCESS:    3757273  HIT:    1166521  MISS:    2590752
LLC LOAD      ACCESS:     404365  HIT:     121858  MISS:     282507
LLC RFO       ACCESS:     463736  HIT:     174010  MISS:     289726
LLC PREFETCH  ACCESS:    2140010  HIT:     536673  MISS:    1603337
LLC WRITEBACK ACCESS:     749162  HIT:     333980  MISS:     415182
Insertion Distribution: 
	LOAD 47206 0 44344 194532 
	RFO 946 0 25472 265455 
	PREF 0 78502 240984 1461616 
	WRITEBACK 0 0 0 438557 
Total Prefetch Downgrades: 67241
